* XSpice netlist created from SPICE and liberty sources by spi2xspice.py
*SPICE netlist created from BLIF module picorv32 by blif2BSpice
.subckt picorv32 a_vdd a_gnd a_clk a_resetn a_mem_ready a_mem_rdata[0] a_mem_rdata[1] a_mem_rdata[2] a_mem_rdata[3] a_mem_rdata[4] a_mem_rdata[5] a_mem_rdata[6] a_mem_rdata[7] a_mem_rdata[8] a_mem_rdata[9] a_mem_rdata[10] a_mem_rdata[11] a_mem_rdata[12] a_mem_rdata[13] a_mem_rdata[14] a_mem_rdata[15] a_mem_rdata[16] a_mem_rdata[17] a_mem_rdata[18] a_mem_rdata[19] a_mem_rdata[20] a_mem_rdata[21] a_mem_rdata[22] a_mem_rdata[23] a_mem_rdata[24] a_mem_rdata[25] a_mem_rdata[26] a_mem_rdata[27] a_mem_rdata[28] a_mem_rdata[29] a_mem_rdata[30] a_mem_rdata[31] a_pcpi_wr a_pcpi_rd[0] a_pcpi_rd[1] a_pcpi_rd[2] a_pcpi_rd[3] a_pcpi_rd[4] a_pcpi_rd[5] a_pcpi_rd[6] a_pcpi_rd[7] a_pcpi_rd[8] a_pcpi_rd[9] a_pcpi_rd[10] a_pcpi_rd[11] a_pcpi_rd[12] a_pcpi_rd[13] a_pcpi_rd[14] a_pcpi_rd[15] a_pcpi_rd[16] a_pcpi_rd[17] a_pcpi_rd[18] a_pcpi_rd[19] a_pcpi_rd[20] a_pcpi_rd[21] a_pcpi_rd[22] a_pcpi_rd[23] a_pcpi_rd[24] a_pcpi_rd[25] a_pcpi_rd[26] a_pcpi_rd[27] a_pcpi_rd[28] a_pcpi_rd[29] a_pcpi_rd[30] a_pcpi_rd[31] a_pcpi_wait a_pcpi_ready a_irq[0] a_irq[1] a_irq[2] a_irq[3] a_irq[4] a_irq[5] a_irq[6] a_irq[7] a_irq[8] a_irq[9] a_irq[10] a_irq[11] a_irq[12] a_irq[13] a_irq[14] a_irq[15] a_irq[16] a_irq[17] a_irq[18] a_irq[19] a_irq[20] a_irq[21] a_irq[22] a_irq[23] a_irq[24] a_irq[25] a_irq[26] a_irq[27] a_irq[28] a_irq[29] a_irq[30] a_irq[31] a_trap a_mem_valid a_mem_instr a_mem_addr[0] a_mem_addr[1] a_mem_addr[2] a_mem_addr[3] a_mem_addr[4] a_mem_addr[5] a_mem_addr[6] a_mem_addr[7] a_mem_addr[8] a_mem_addr[9] a_mem_addr[10] a_mem_addr[11] a_mem_addr[12] a_mem_addr[13] a_mem_addr[14] a_mem_addr[15] a_mem_addr[16] a_mem_addr[17] a_mem_addr[18] a_mem_addr[19] a_mem_addr[20] a_mem_addr[21] a_mem_addr[22] a_mem_addr[23] a_mem_addr[24] a_mem_addr[25] a_mem_addr[26] a_mem_addr[27] a_mem_addr[28] a_mem_addr[29] a_mem_addr[30] a_mem_addr[31] a_mem_wdata[0] a_mem_wdata[1] a_mem_wdata[2] a_mem_wdata[3] a_mem_wdata[4] a_mem_wdata[5] a_mem_wdata[6] a_mem_wdata[7] a_mem_wdata[8] a_mem_wdata[9] a_mem_wdata[10] a_mem_wdata[11] a_mem_wdata[12] a_mem_wdata[13] a_mem_wdata[14] a_mem_wdata[15] a_mem_wdata[16] a_mem_wdata[17] a_mem_wdata[18] a_mem_wdata[19] a_mem_wdata[20] a_mem_wdata[21] a_mem_wdata[22] a_mem_wdata[23] a_mem_wdata[24] a_mem_wdata[25] a_mem_wdata[26] a_mem_wdata[27] a_mem_wdata[28] a_mem_wdata[29] a_mem_wdata[30] a_mem_wdata[31] a_mem_wstrb[0] a_mem_wstrb[1] a_mem_wstrb[2] a_mem_wstrb[3] a_mem_la_read a_mem_la_write a_mem_la_addr[0] a_mem_la_addr[1] a_mem_la_addr[2] a_mem_la_addr[3] a_mem_la_addr[4] a_mem_la_addr[5] a_mem_la_addr[6] a_mem_la_addr[7] a_mem_la_addr[8] a_mem_la_addr[9] a_mem_la_addr[10] a_mem_la_addr[11] a_mem_la_addr[12] a_mem_la_addr[13] a_mem_la_addr[14] a_mem_la_addr[15] a_mem_la_addr[16] a_mem_la_addr[17] a_mem_la_addr[18] a_mem_la_addr[19] a_mem_la_addr[20] a_mem_la_addr[21] a_mem_la_addr[22] a_mem_la_addr[23] a_mem_la_addr[24] a_mem_la_addr[25] a_mem_la_addr[26] a_mem_la_addr[27] a_mem_la_addr[28] a_mem_la_addr[29] a_mem_la_addr[30] a_mem_la_addr[31] a_mem_la_wdata[0] a_mem_la_wdata[1] a_mem_la_wdata[2] a_mem_la_wdata[3] a_mem_la_wdata[4] a_mem_la_wdata[5] a_mem_la_wdata[6] a_mem_la_wdata[7] a_mem_la_wdata[8] a_mem_la_wdata[9] a_mem_la_wdata[10] a_mem_la_wdata[11] a_mem_la_wdata[12] a_mem_la_wdata[13] a_mem_la_wdata[14] a_mem_la_wdata[15] a_mem_la_wdata[16] a_mem_la_wdata[17] a_mem_la_wdata[18] a_mem_la_wdata[19] a_mem_la_wdata[20] a_mem_la_wdata[21] a_mem_la_wdata[22] a_mem_la_wdata[23] a_mem_la_wdata[24] a_mem_la_wdata[25] a_mem_la_wdata[26] a_mem_la_wdata[27] a_mem_la_wdata[28] a_mem_la_wdata[29] a_mem_la_wdata[30] a_mem_la_wdata[31] a_mem_la_wstrb[0] a_mem_la_wstrb[1] a_mem_la_wstrb[2] a_mem_la_wstrb[3] a_pcpi_valid a_pcpi_insn[0] a_pcpi_insn[1] a_pcpi_insn[2] a_pcpi_insn[3] a_pcpi_insn[4] a_pcpi_insn[5] a_pcpi_insn[6] a_pcpi_insn[7] a_pcpi_insn[8] a_pcpi_insn[9] a_pcpi_insn[10] a_pcpi_insn[11] a_pcpi_insn[12] a_pcpi_insn[13] a_pcpi_insn[14] a_pcpi_insn[15] a_pcpi_insn[16] a_pcpi_insn[17] a_pcpi_insn[18] a_pcpi_insn[19] a_pcpi_insn[20] a_pcpi_insn[21] a_pcpi_insn[22] a_pcpi_insn[23] a_pcpi_insn[24] a_pcpi_insn[25] a_pcpi_insn[26] a_pcpi_insn[27] a_pcpi_insn[28] a_pcpi_insn[29] a_pcpi_insn[30] a_pcpi_insn[31] a_pcpi_rs1[0] a_pcpi_rs1[1] a_pcpi_rs1[2] a_pcpi_rs1[3] a_pcpi_rs1[4] a_pcpi_rs1[5] a_pcpi_rs1[6] a_pcpi_rs1[7] a_pcpi_rs1[8] a_pcpi_rs1[9] a_pcpi_rs1[10] a_pcpi_rs1[11] a_pcpi_rs1[12] a_pcpi_rs1[13] a_pcpi_rs1[14] a_pcpi_rs1[15] a_pcpi_rs1[16] a_pcpi_rs1[17] a_pcpi_rs1[18] a_pcpi_rs1[19] a_pcpi_rs1[20] a_pcpi_rs1[21] a_pcpi_rs1[22] a_pcpi_rs1[23] a_pcpi_rs1[24] a_pcpi_rs1[25] a_pcpi_rs1[26] a_pcpi_rs1[27] a_pcpi_rs1[28] a_pcpi_rs1[29] a_pcpi_rs1[30] a_pcpi_rs1[31] a_pcpi_rs2[0] a_pcpi_rs2[1] a_pcpi_rs2[2] a_pcpi_rs2[3] a_pcpi_rs2[4] a_pcpi_rs2[5] a_pcpi_rs2[6] a_pcpi_rs2[7] a_pcpi_rs2[8] a_pcpi_rs2[9] a_pcpi_rs2[10] a_pcpi_rs2[11] a_pcpi_rs2[12] a_pcpi_rs2[13] a_pcpi_rs2[14] a_pcpi_rs2[15] a_pcpi_rs2[16] a_pcpi_rs2[17] a_pcpi_rs2[18] a_pcpi_rs2[19] a_pcpi_rs2[20] a_pcpi_rs2[21] a_pcpi_rs2[22] a_pcpi_rs2[23] a_pcpi_rs2[24] a_pcpi_rs2[25] a_pcpi_rs2[26] a_pcpi_rs2[27] a_pcpi_rs2[28] a_pcpi_rs2[29] a_pcpi_rs2[30] a_pcpi_rs2[31] a_eoi[0] a_eoi[1] a_eoi[2] a_eoi[3] a_eoi[4] a_eoi[5] a_eoi[6] a_eoi[7] a_eoi[8] a_eoi[9] a_eoi[10] a_eoi[11] a_eoi[12] a_eoi[13] a_eoi[14] a_eoi[15] a_eoi[16] a_eoi[17] a_eoi[18] a_eoi[19] a_eoi[20] a_eoi[21] a_eoi[22] a_eoi[23] a_eoi[24] a_eoi[25] a_eoi[26] a_eoi[27] a_eoi[28] a_eoi[29] a_eoi[30] a_eoi[31] a_trace_valid a_trace_data[0] a_trace_data[1] a_trace_data[2] a_trace_data[3] a_trace_data[4] a_trace_data[5] a_trace_data[6] a_trace_data[7] a_trace_data[8] a_trace_data[9] a_trace_data[10] a_trace_data[11] a_trace_data[12] a_trace_data[13] a_trace_data[14] a_trace_data[15] a_trace_data[16] a_trace_data[17] a_trace_data[18] a_trace_data[19] a_trace_data[20] a_trace_data[21] a_trace_data[22] a_trace_data[23] a_trace_data[24] a_trace_data[25] a_trace_data[26] a_trace_data[27] a_trace_data[28] a_trace_data[29] a_trace_data[30] a_trace_data[31] a_trace_data[32] a_trace_data[33] a_trace_data[34] a_trace_data[35]
ABUFX2_1 [_7556_] _7556__hier0_bF$buf5 d_lut_BUFX2
ABUFX2_2 [_7556_] _7556__hier0_bF$buf4 d_lut_BUFX2
ABUFX2_3 [_7556_] _7556__hier0_bF$buf3 d_lut_BUFX2
ABUFX2_4 [_7556_] _7556__hier0_bF$buf2 d_lut_BUFX2
ABUFX2_5 [_7556_] _7556__hier0_bF$buf1 d_lut_BUFX2
ABUFX2_6 [_7556_] _7556__hier0_bF$buf0 d_lut_BUFX2
ABUFX2_7 [clk] clk_hier0_bF$buf10 d_lut_BUFX2
ABUFX2_8 [clk] clk_hier0_bF$buf9 d_lut_BUFX2
ABUFX2_9 [clk] clk_hier0_bF$buf8 d_lut_BUFX2
ABUFX2_10 [clk] clk_hier0_bF$buf7 d_lut_BUFX2
ABUFX2_11 [clk] clk_hier0_bF$buf6 d_lut_BUFX2
ABUFX2_12 [clk] clk_hier0_bF$buf5 d_lut_BUFX2
ABUFX2_13 [clk] clk_hier0_bF$buf4 d_lut_BUFX2
ABUFX2_14 [clk] clk_hier0_bF$buf3 d_lut_BUFX2
ABUFX2_15 [clk] clk_hier0_bF$buf2 d_lut_BUFX2
ABUFX2_16 [clk] clk_hier0_bF$buf1 d_lut_BUFX2
ABUFX2_17 [clk] clk_hier0_bF$buf0 d_lut_BUFX2
ABUFX2_18 [decoded_rs2[1]] decoded_rs2[1]_hier0_bF$buf5 d_lut_BUFX2
ABUFX2_19 [decoded_rs2[1]] decoded_rs2[1]_hier0_bF$buf4 d_lut_BUFX2
ABUFX2_20 [decoded_rs2[1]] decoded_rs2[1]_hier0_bF$buf3 d_lut_BUFX2
ABUFX2_21 [decoded_rs2[1]] decoded_rs2[1]_hier0_bF$buf2 d_lut_BUFX2
ABUFX2_22 [decoded_rs2[1]] decoded_rs2[1]_hier0_bF$buf1 d_lut_BUFX2
ABUFX2_23 [decoded_rs2[1]] decoded_rs2[1]_hier0_bF$buf0 d_lut_BUFX2
ABUFX2_24 [decoded_rs1[1]] decoded_rs1[1]_hier0_bF$buf5 d_lut_BUFX2
ABUFX2_25 [decoded_rs1[1]] decoded_rs1[1]_hier0_bF$buf4 d_lut_BUFX2
ABUFX2_26 [decoded_rs1[1]] decoded_rs1[1]_hier0_bF$buf3 d_lut_BUFX2
ABUFX2_27 [decoded_rs1[1]] decoded_rs1[1]_hier0_bF$buf2 d_lut_BUFX2
ABUFX2_28 [decoded_rs1[1]] decoded_rs1[1]_hier0_bF$buf1 d_lut_BUFX2
ABUFX2_29 [decoded_rs1[1]] decoded_rs1[1]_hier0_bF$buf0 d_lut_BUFX2
ABUFX2_30 [_7569_] _7569__hier0_bF$buf6 d_lut_BUFX2
ABUFX2_31 [_7569_] _7569__hier0_bF$buf5 d_lut_BUFX2
ABUFX2_32 [_7569_] _7569__hier0_bF$buf4 d_lut_BUFX2
ABUFX2_33 [_7569_] _7569__hier0_bF$buf3 d_lut_BUFX2
ABUFX2_34 [_7569_] _7569__hier0_bF$buf2 d_lut_BUFX2
ABUFX2_35 [_7569_] _7569__hier0_bF$buf1 d_lut_BUFX2
ABUFX2_36 [_7569_] _7569__hier0_bF$buf0 d_lut_BUFX2
ABUFX2_37 [decoded_rs2[0]] decoded_rs2[0]_hier0_bF$buf7 d_lut_BUFX2
ABUFX2_38 [decoded_rs2[0]] decoded_rs2[0]_hier0_bF$buf6 d_lut_BUFX2
ABUFX2_39 [decoded_rs2[0]] decoded_rs2[0]_hier0_bF$buf5 d_lut_BUFX2
ABUFX2_40 [decoded_rs2[0]] decoded_rs2[0]_hier0_bF$buf4 d_lut_BUFX2
ABUFX2_41 [decoded_rs2[0]] decoded_rs2[0]_hier0_bF$buf3 d_lut_BUFX2
ABUFX2_42 [decoded_rs2[0]] decoded_rs2[0]_hier0_bF$buf2 d_lut_BUFX2
ABUFX2_43 [decoded_rs2[0]] decoded_rs2[0]_hier0_bF$buf1 d_lut_BUFX2
ABUFX2_44 [decoded_rs2[0]] decoded_rs2[0]_hier0_bF$buf0 d_lut_BUFX2
ABUFX2_45 [decoded_rs1[0]] decoded_rs1[0]_hier0_bF$buf6 d_lut_BUFX2
ABUFX2_46 [decoded_rs1[0]] decoded_rs1[0]_hier0_bF$buf5 d_lut_BUFX2
ABUFX2_47 [decoded_rs1[0]] decoded_rs1[0]_hier0_bF$buf4 d_lut_BUFX2
ABUFX2_48 [decoded_rs1[0]] decoded_rs1[0]_hier0_bF$buf3 d_lut_BUFX2
ABUFX2_49 [decoded_rs1[0]] decoded_rs1[0]_hier0_bF$buf2 d_lut_BUFX2
ABUFX2_50 [decoded_rs1[0]] decoded_rs1[0]_hier0_bF$buf1 d_lut_BUFX2
ABUFX2_51 [decoded_rs1[0]] decoded_rs1[0]_hier0_bF$buf0 d_lut_BUFX2
ABUFX2_52 [_1601_] _1601__bF$buf4 d_lut_BUFX2
ABUFX2_53 [_1601_] _1601__bF$buf3 d_lut_BUFX2
ABUFX2_54 [_1601_] _1601__bF$buf2 d_lut_BUFX2
ABUFX2_55 [_1601_] _1601__bF$buf1 d_lut_BUFX2
ABUFX2_56 [_1601_] _1601__bF$buf0 d_lut_BUFX2
ABUFX2_57 [_10099_] _10099__bF$buf3 d_lut_BUFX2
ABUFX2_58 [_10099_] _10099__bF$buf2 d_lut_BUFX2
ABUFX2_59 [_10099_] _10099__bF$buf1 d_lut_BUFX2
ABUFX2_60 [_10099_] _10099__bF$buf0 d_lut_BUFX2
ABUFX2_61 [_4587_] _4587__bF$buf3 d_lut_BUFX2
ABUFX2_62 [_4587_] _4587__bF$buf2 d_lut_BUFX2
ABUFX2_63 [_4587_] _4587__bF$buf1 d_lut_BUFX2
ABUFX2_64 [_4587_] _4587__bF$buf0 d_lut_BUFX2
ABUFX2_65 [_5813_] _5813__bF$buf7 d_lut_BUFX2
ABUFX2_66 [_5813_] _5813__bF$buf6 d_lut_BUFX2
ABUFX2_67 [_5813_] _5813__bF$buf5 d_lut_BUFX2
ABUFX2_68 [_5813_] _5813__bF$buf4 d_lut_BUFX2
ABUFX2_69 [_5813_] _5813__bF$buf3 d_lut_BUFX2
ABUFX2_70 [_5813_] _5813__bF$buf2 d_lut_BUFX2
ABUFX2_71 [_5813_] _5813__bF$buf1 d_lut_BUFX2
ABUFX2_72 [_5813_] _5813__bF$buf0 d_lut_BUFX2
ABUFX2_73 [_7556__hier0_bF$buf5] _7556__bF$buf42 d_lut_BUFX2
ABUFX2_74 [_7556__hier0_bF$buf4] _7556__bF$buf41 d_lut_BUFX2
ABUFX2_75 [_7556__hier0_bF$buf3] _7556__bF$buf40 d_lut_BUFX2
ABUFX2_76 [_7556__hier0_bF$buf2] _7556__bF$buf39 d_lut_BUFX2
ABUFX2_77 [_7556__hier0_bF$buf1] _7556__bF$buf38 d_lut_BUFX2
ABUFX2_78 [_7556__hier0_bF$buf0] _7556__bF$buf37 d_lut_BUFX2
ABUFX2_79 [_7556__hier0_bF$buf5] _7556__bF$buf36 d_lut_BUFX2
ABUFX2_80 [_7556__hier0_bF$buf4] _7556__bF$buf35 d_lut_BUFX2
ABUFX2_81 [_7556__hier0_bF$buf3] _7556__bF$buf34 d_lut_BUFX2
ABUFX2_82 [_7556__hier0_bF$buf2] _7556__bF$buf33 d_lut_BUFX2
ABUFX2_83 [_7556__hier0_bF$buf1] _7556__bF$buf32 d_lut_BUFX2
ABUFX2_84 [_7556__hier0_bF$buf0] _7556__bF$buf31 d_lut_BUFX2
ABUFX2_85 [_7556__hier0_bF$buf5] _7556__bF$buf30 d_lut_BUFX2
ABUFX2_86 [_7556__hier0_bF$buf4] _7556__bF$buf29 d_lut_BUFX2
ABUFX2_87 [_7556__hier0_bF$buf3] _7556__bF$buf28 d_lut_BUFX2
ABUFX2_88 [_7556__hier0_bF$buf2] _7556__bF$buf27 d_lut_BUFX2
ABUFX2_89 [_7556__hier0_bF$buf1] _7556__bF$buf26 d_lut_BUFX2
ABUFX2_90 [_7556__hier0_bF$buf0] _7556__bF$buf25 d_lut_BUFX2
ABUFX2_91 [_7556__hier0_bF$buf5] _7556__bF$buf24 d_lut_BUFX2
ABUFX2_92 [_7556__hier0_bF$buf4] _7556__bF$buf23 d_lut_BUFX2
ABUFX2_93 [_7556__hier0_bF$buf3] _7556__bF$buf22 d_lut_BUFX2
ABUFX2_94 [_7556__hier0_bF$buf2] _7556__bF$buf21 d_lut_BUFX2
ABUFX2_95 [_7556__hier0_bF$buf1] _7556__bF$buf20 d_lut_BUFX2
ABUFX2_96 [_7556__hier0_bF$buf0] _7556__bF$buf19 d_lut_BUFX2
ABUFX2_97 [_7556__hier0_bF$buf5] _7556__bF$buf18 d_lut_BUFX2
ABUFX2_98 [_7556__hier0_bF$buf4] _7556__bF$buf17 d_lut_BUFX2
ABUFX2_99 [_7556__hier0_bF$buf3] _7556__bF$buf16 d_lut_BUFX2
ABUFX2_100 [_7556__hier0_bF$buf2] _7556__bF$buf15 d_lut_BUFX2
ABUFX2_101 [_7556__hier0_bF$buf1] _7556__bF$buf14 d_lut_BUFX2
ABUFX2_102 [_7556__hier0_bF$buf0] _7556__bF$buf13 d_lut_BUFX2
ABUFX2_103 [_7556__hier0_bF$buf5] _7556__bF$buf12 d_lut_BUFX2
ABUFX2_104 [_7556__hier0_bF$buf4] _7556__bF$buf11 d_lut_BUFX2
ABUFX2_105 [_7556__hier0_bF$buf3] _7556__bF$buf10 d_lut_BUFX2
ABUFX2_106 [_7556__hier0_bF$buf2] _7556__bF$buf9 d_lut_BUFX2
ABUFX2_107 [_7556__hier0_bF$buf1] _7556__bF$buf8 d_lut_BUFX2
ABUFX2_108 [_7556__hier0_bF$buf0] _7556__bF$buf7 d_lut_BUFX2
ABUFX2_109 [_7556__hier0_bF$buf5] _7556__bF$buf6 d_lut_BUFX2
ABUFX2_110 [_7556__hier0_bF$buf4] _7556__bF$buf5 d_lut_BUFX2
ABUFX2_111 [_7556__hier0_bF$buf3] _7556__bF$buf4 d_lut_BUFX2
ABUFX2_112 [_7556__hier0_bF$buf2] _7556__bF$buf3 d_lut_BUFX2
ABUFX2_113 [_7556__hier0_bF$buf1] _7556__bF$buf2 d_lut_BUFX2
ABUFX2_114 [_7556__hier0_bF$buf0] _7556__bF$buf1 d_lut_BUFX2
ABUFX2_115 [_7556__hier0_bF$buf5] _7556__bF$buf0 d_lut_BUFX2
ABUFX2_116 [_4740_] _4740__bF$buf4 d_lut_BUFX2
ABUFX2_117 [_4740_] _4740__bF$buf3 d_lut_BUFX2
ABUFX2_118 [_4740_] _4740__bF$buf2 d_lut_BUFX2
ABUFX2_119 [_4740_] _4740__bF$buf1 d_lut_BUFX2
ABUFX2_120 [_4740_] _4740__bF$buf0 d_lut_BUFX2
ABUFX2_121 [_4605_] _4605__bF$buf5 d_lut_BUFX2
ABUFX2_122 [_4605_] _4605__bF$buf4 d_lut_BUFX2
ABUFX2_123 [_4605_] _4605__bF$buf3 d_lut_BUFX2
ABUFX2_124 [_4605_] _4605__bF$buf2 d_lut_BUFX2
ABUFX2_125 [_4605_] _4605__bF$buf1 d_lut_BUFX2
ABUFX2_126 [_4605_] _4605__bF$buf0 d_lut_BUFX2
ABUFX2_127 [_3914_] _3914__bF$buf4 d_lut_BUFX2
ABUFX2_128 [_3914_] _3914__bF$buf3 d_lut_BUFX2
ABUFX2_129 [_3914_] _3914__bF$buf2 d_lut_BUFX2
ABUFX2_130 [_3914_] _3914__bF$buf1 d_lut_BUFX2
ABUFX2_131 [_3914_] _3914__bF$buf0 d_lut_BUFX2
ABUFX2_132 [decoded_rs2[2]] decoded_rs2[2_bF$buf8] d_lut_BUFX2
ABUFX2_133 [decoded_rs2[2]] decoded_rs2[2_bF$buf7] d_lut_BUFX2
ABUFX2_134 [decoded_rs2[2]] decoded_rs2[2_bF$buf6] d_lut_BUFX2
ABUFX2_135 [decoded_rs2[2]] decoded_rs2[2_bF$buf5] d_lut_BUFX2
ABUFX2_136 [decoded_rs2[2]] decoded_rs2[2_bF$buf4] d_lut_BUFX2
ABUFX2_137 [decoded_rs2[2]] decoded_rs2[2_bF$buf3] d_lut_BUFX2
ABUFX2_138 [decoded_rs2[2]] decoded_rs2[2_bF$buf2] d_lut_BUFX2
ABUFX2_139 [decoded_rs2[2]] decoded_rs2[2_bF$buf1] d_lut_BUFX2
ABUFX2_140 [decoded_rs2[2]] decoded_rs2[2_bF$buf0] d_lut_BUFX2
ABUFX2_141 [_2171_] _2171__bF$buf8 d_lut_BUFX2
ABUFX2_142 [_2171_] _2171__bF$buf7 d_lut_BUFX2
ABUFX2_143 [_2171_] _2171__bF$buf6 d_lut_BUFX2
ABUFX2_144 [_2171_] _2171__bF$buf5 d_lut_BUFX2
ABUFX2_145 [_2171_] _2171__bF$buf4 d_lut_BUFX2
ABUFX2_146 [_2171_] _2171__bF$buf3 d_lut_BUFX2
ABUFX2_147 [_2171_] _2171__bF$buf2 d_lut_BUFX2
ABUFX2_148 [_2171_] _2171__bF$buf1 d_lut_BUFX2
ABUFX2_149 [_2171_] _2171__bF$buf0 d_lut_BUFX2
ABUFX2_150 [_5140_] _5140__bF$buf5 d_lut_BUFX2
ABUFX2_151 [_5140_] _5140__bF$buf4 d_lut_BUFX2
ABUFX2_152 [_5140_] _5140__bF$buf3 d_lut_BUFX2
ABUFX2_153 [_5140_] _5140__bF$buf2 d_lut_BUFX2
ABUFX2_154 [_5140_] _5140__bF$buf1 d_lut_BUFX2
ABUFX2_155 [_5140_] _5140__bF$buf0 d_lut_BUFX2
ABUFX2_156 [_4925_] _4925__bF$buf4 d_lut_BUFX2
ABUFX2_157 [_4925_] _4925__bF$buf3 d_lut_BUFX2
ABUFX2_158 [_4925_] _4925__bF$buf2 d_lut_BUFX2
ABUFX2_159 [_4925_] _4925__bF$buf1 d_lut_BUFX2
ABUFX2_160 [_4925_] _4925__bF$buf0 d_lut_BUFX2
ABUFX2_161 [_4637_] _4637__bF$buf3 d_lut_BUFX2
ABUFX2_162 [_4637_] _4637__bF$buf2 d_lut_BUFX2
ABUFX2_163 [_4637_] _4637__bF$buf1 d_lut_BUFX2
ABUFX2_164 [_4637_] _4637__bF$buf0 d_lut_BUFX2
ABUFX2_165 [decoded_rs1[2]] decoded_rs1[2_bF$buf12] d_lut_BUFX2
ABUFX2_166 [decoded_rs1[2]] decoded_rs1[2_bF$buf11] d_lut_BUFX2
ABUFX2_167 [decoded_rs1[2]] decoded_rs1[2_bF$buf10] d_lut_BUFX2
ABUFX2_168 [decoded_rs1[2]] decoded_rs1[2_bF$buf9] d_lut_BUFX2
ABUFX2_169 [decoded_rs1[2]] decoded_rs1[2_bF$buf8] d_lut_BUFX2
ABUFX2_170 [decoded_rs1[2]] decoded_rs1[2_bF$buf7] d_lut_BUFX2
ABUFX2_171 [decoded_rs1[2]] decoded_rs1[2_bF$buf6] d_lut_BUFX2
ABUFX2_172 [decoded_rs1[2]] decoded_rs1[2_bF$buf5] d_lut_BUFX2
ABUFX2_173 [decoded_rs1[2]] decoded_rs1[2_bF$buf4] d_lut_BUFX2
ABUFX2_174 [decoded_rs1[2]] decoded_rs1[2_bF$buf3] d_lut_BUFX2
ABUFX2_175 [decoded_rs1[2]] decoded_rs1[2_bF$buf2] d_lut_BUFX2
ABUFX2_176 [decoded_rs1[2]] decoded_rs1[2_bF$buf1] d_lut_BUFX2
ABUFX2_177 [decoded_rs1[2]] decoded_rs1[2_bF$buf0] d_lut_BUFX2
ABUFX2_178 [_3755_] _3755__bF$buf3 d_lut_BUFX2
ABUFX2_179 [_3755_] _3755__bF$buf2 d_lut_BUFX2
ABUFX2_180 [_3755_] _3755__bF$buf1 d_lut_BUFX2
ABUFX2_181 [_3755_] _3755__bF$buf0 d_lut_BUFX2
ABUFX2_182 [_1630_] _1630__bF$buf3 d_lut_BUFX2
ABUFX2_183 [_1630_] _1630__bF$buf2 d_lut_BUFX2
ABUFX2_184 [_1630_] _1630__bF$buf1 d_lut_BUFX2
ABUFX2_185 [_1630_] _1630__bF$buf0 d_lut_BUFX2
ABUFX2_186 [_2071_] _2071__bF$buf4 d_lut_BUFX2
ABUFX2_187 [_2071_] _2071__bF$buf3 d_lut_BUFX2
ABUFX2_188 [_2071_] _2071__bF$buf2 d_lut_BUFX2
ABUFX2_189 [_2071_] _2071__bF$buf1 d_lut_BUFX2
ABUFX2_190 [_2071_] _2071__bF$buf0 d_lut_BUFX2
ABUFX2_191 [cpu_state[5]] cpu_state[5_bF$buf3] d_lut_BUFX2
ABUFX2_192 [cpu_state[5]] cpu_state[5_bF$buf2] d_lut_BUFX2
ABUFX2_193 [cpu_state[5]] cpu_state[5_bF$buf1] d_lut_BUFX2
ABUFX2_194 [cpu_state[5]] cpu_state[5_bF$buf0] d_lut_BUFX2
ABUFX2_195 [_5707_] _5707__bF$buf3 d_lut_BUFX2
ABUFX2_196 [_5707_] _5707__bF$buf2 d_lut_BUFX2
ABUFX2_197 [_5707_] _5707__bF$buf1 d_lut_BUFX2
ABUFX2_198 [_5707_] _5707__bF$buf0 d_lut_BUFX2
ABUFX2_199 [_4731_] _4731__bF$buf4 d_lut_BUFX2
ABUFX2_200 [_4731_] _4731__bF$buf3 d_lut_BUFX2
ABUFX2_201 [_4731_] _4731__bF$buf2 d_lut_BUFX2
ABUFX2_202 [_4731_] _4731__bF$buf1 d_lut_BUFX2
ABUFX2_203 [_4731_] _4731__bF$buf0 d_lut_BUFX2
ABUFX2_204 [_4540_] _4540__bF$buf6 d_lut_BUFX2
ABUFX2_205 [_4540_] _4540__bF$buf5 d_lut_BUFX2
ABUFX2_206 [_4540_] _4540__bF$buf4 d_lut_BUFX2
ABUFX2_207 [_4540_] _4540__bF$buf3 d_lut_BUFX2
ABUFX2_208 [_4540_] _4540__bF$buf2 d_lut_BUFX2
ABUFX2_209 [_4540_] _4540__bF$buf1 d_lut_BUFX2
ABUFX2_210 [_4540_] _4540__bF$buf0 d_lut_BUFX2
ABUFX2_211 [_7700_] _7700__bF$buf5 d_lut_BUFX2
ABUFX2_212 [_7700_] _7700__bF$buf4 d_lut_BUFX2
ABUFX2_213 [_7700_] _7700__bF$buf3 d_lut_BUFX2
ABUFX2_214 [_7700_] _7700__bF$buf2 d_lut_BUFX2
ABUFX2_215 [_7700_] _7700__bF$buf1 d_lut_BUFX2
ABUFX2_216 [_7700_] _7700__bF$buf0 d_lut_BUFX2
ABUFX2_217 [_10728_[3]] _10728_[3_bF$buf4] d_lut_BUFX2
ABUFX2_218 [_10728_[3]] _10728_[3_bF$buf3] d_lut_BUFX2
ABUFX2_219 [_10728_[3]] _10728_[3_bF$buf2] d_lut_BUFX2
ABUFX2_220 [_10728_[3]] _10728_[3_bF$buf1] d_lut_BUFX2
ABUFX2_221 [_10728_[3]] _10728_[3_bF$buf0] d_lut_BUFX2
ABUFX2_222 [_4863_] _4863__bF$buf4 d_lut_BUFX2
ABUFX2_223 [_4863_] _4863__bF$buf3 d_lut_BUFX2
ABUFX2_224 [_4863_] _4863__bF$buf2 d_lut_BUFX2
ABUFX2_225 [_4863_] _4863__bF$buf1 d_lut_BUFX2
ABUFX2_226 [_4863_] _4863__bF$buf0 d_lut_BUFX2
ABUFX2_227 [_4919_] _4919__bF$buf4 d_lut_BUFX2
ABUFX2_228 [_4919_] _4919__bF$buf3 d_lut_BUFX2
ABUFX2_229 [_4919_] _4919__bF$buf2 d_lut_BUFX2
ABUFX2_230 [_4919_] _4919__bF$buf1 d_lut_BUFX2
ABUFX2_231 [_4919_] _4919__bF$buf0 d_lut_BUFX2
ABUFX2_232 [_3981_] _3981__bF$buf4 d_lut_BUFX2
ABUFX2_233 [_3981_] _3981__bF$buf3 d_lut_BUFX2
ABUFX2_234 [_3981_] _3981__bF$buf2 d_lut_BUFX2
ABUFX2_235 [_3981_] _3981__bF$buf1 d_lut_BUFX2
ABUFX2_236 [_3981_] _3981__bF$buf0 d_lut_BUFX2
ABUFX2_237 [_4575_] _4575__bF$buf4 d_lut_BUFX2
ABUFX2_238 [_4575_] _4575__bF$buf3 d_lut_BUFX2
ABUFX2_239 [_4575_] _4575__bF$buf2 d_lut_BUFX2
ABUFX2_240 [_4575_] _4575__bF$buf1 d_lut_BUFX2
ABUFX2_241 [_4575_] _4575__bF$buf0 d_lut_BUFX2
ABUFX2_242 [_3846_] _3846__bF$buf4 d_lut_BUFX2
ABUFX2_243 [_3846_] _3846__bF$buf3 d_lut_BUFX2
ABUFX2_244 [_3846_] _3846__bF$buf2 d_lut_BUFX2
ABUFX2_245 [_3846_] _3846__bF$buf1 d_lut_BUFX2
ABUFX2_246 [_3846_] _3846__bF$buf0 d_lut_BUFX2
ABUFX2_247 [is_lui_auipc_jal_jalr_addi_add_sub] is_lui_auipc_jal_jalr_addi_add_sub_bF$buf4 d_lut_BUFX2
ABUFX2_248 [is_lui_auipc_jal_jalr_addi_add_sub] is_lui_auipc_jal_jalr_addi_add_sub_bF$buf3 d_lut_BUFX2
ABUFX2_249 [is_lui_auipc_jal_jalr_addi_add_sub] is_lui_auipc_jal_jalr_addi_add_sub_bF$buf2 d_lut_BUFX2
ABUFX2_250 [is_lui_auipc_jal_jalr_addi_add_sub] is_lui_auipc_jal_jalr_addi_add_sub_bF$buf1 d_lut_BUFX2
ABUFX2_251 [is_lui_auipc_jal_jalr_addi_add_sub] is_lui_auipc_jal_jalr_addi_add_sub_bF$buf0 d_lut_BUFX2
ABUFX2_252 [latched_stalu] latched_stalu_bF$buf6 d_lut_BUFX2
ABUFX2_253 [latched_stalu] latched_stalu_bF$buf5 d_lut_BUFX2
ABUFX2_254 [latched_stalu] latched_stalu_bF$buf4 d_lut_BUFX2
ABUFX2_255 [latched_stalu] latched_stalu_bF$buf3 d_lut_BUFX2
ABUFX2_256 [latched_stalu] latched_stalu_bF$buf2 d_lut_BUFX2
ABUFX2_257 [latched_stalu] latched_stalu_bF$buf1 d_lut_BUFX2
ABUFX2_258 [latched_stalu] latched_stalu_bF$buf0 d_lut_BUFX2
ABUFX2_259 [cpu_state[2]] cpu_state[2_bF$buf5] d_lut_BUFX2
ABUFX2_260 [cpu_state[2]] cpu_state[2_bF$buf4] d_lut_BUFX2
ABUFX2_261 [cpu_state[2]] cpu_state[2_bF$buf3] d_lut_BUFX2
ABUFX2_262 [cpu_state[2]] cpu_state[2_bF$buf2] d_lut_BUFX2
ABUFX2_263 [cpu_state[2]] cpu_state[2_bF$buf1] d_lut_BUFX2
ABUFX2_264 [cpu_state[2]] cpu_state[2_bF$buf0] d_lut_BUFX2
ABUFX2_265 [_1853_] _1853__bF$buf5 d_lut_BUFX2
ABUFX2_266 [_1853_] _1853__bF$buf4 d_lut_BUFX2
ABUFX2_267 [_1853_] _1853__bF$buf3 d_lut_BUFX2
ABUFX2_268 [_1853_] _1853__bF$buf2 d_lut_BUFX2
ABUFX2_269 [_1853_] _1853__bF$buf1 d_lut_BUFX2
ABUFX2_270 [_1853_] _1853__bF$buf0 d_lut_BUFX2
ABUFX2_271 [_5131_] _5131__bF$buf5 d_lut_BUFX2
ABUFX2_272 [_5131_] _5131__bF$buf4 d_lut_BUFX2
ABUFX2_273 [_5131_] _5131__bF$buf3 d_lut_BUFX2
ABUFX2_274 [_5131_] _5131__bF$buf2 d_lut_BUFX2
ABUFX2_275 [_5131_] _5131__bF$buf1 d_lut_BUFX2
ABUFX2_276 [_5131_] _5131__bF$buf0 d_lut_BUFX2
ABUFX2_277 [_5780_] _5780__bF$buf7 d_lut_BUFX2
ABUFX2_278 [_5780_] _5780__bF$buf6 d_lut_BUFX2
ABUFX2_279 [_5780_] _5780__bF$buf5 d_lut_BUFX2
ABUFX2_280 [_5780_] _5780__bF$buf4 d_lut_BUFX2
ABUFX2_281 [_5780_] _5780__bF$buf3 d_lut_BUFX2
ABUFX2_282 [_5780_] _5780__bF$buf2 d_lut_BUFX2
ABUFX2_283 [_5780_] _5780__bF$buf1 d_lut_BUFX2
ABUFX2_284 [_5780_] _5780__bF$buf0 d_lut_BUFX2
ABUFX2_285 [_10728_[0]] _10728_[0_bF$buf7] d_lut_BUFX2
ABUFX2_286 [_10728_[0]] _10728_[0_bF$buf6] d_lut_BUFX2
ABUFX2_287 [_10728_[0]] _10728_[0_bF$buf5] d_lut_BUFX2
ABUFX2_288 [_10728_[0]] _10728_[0_bF$buf4] d_lut_BUFX2
ABUFX2_289 [_10728_[0]] _10728_[0_bF$buf3] d_lut_BUFX2
ABUFX2_290 [_10728_[0]] _10728_[0_bF$buf2] d_lut_BUFX2
ABUFX2_291 [_10728_[0]] _10728_[0_bF$buf1] d_lut_BUFX2
ABUFX2_292 [_10728_[0]] _10728_[0_bF$buf0] d_lut_BUFX2
ABUFX2_293 [_3711_] _3711__bF$buf7 d_lut_BUFX2
ABUFX2_294 [_3711_] _3711__bF$buf6 d_lut_BUFX2
ABUFX2_295 [_3711_] _3711__bF$buf5 d_lut_BUFX2
ABUFX2_296 [_3711_] _3711__bF$buf4 d_lut_BUFX2
ABUFX2_297 [_3711_] _3711__bF$buf3 d_lut_BUFX2
ABUFX2_298 [_3711_] _3711__bF$buf2 d_lut_BUFX2
ABUFX2_299 [_3711_] _3711__bF$buf1 d_lut_BUFX2
ABUFX2_300 [_3711_] _3711__bF$buf0 d_lut_BUFX2
ABUFX2_301 [_4763_] _4763__bF$buf4 d_lut_BUFX2
ABUFX2_302 [_4763_] _4763__bF$buf3 d_lut_BUFX2
ABUFX2_303 [_4763_] _4763__bF$buf2 d_lut_BUFX2
ABUFX2_304 [_4763_] _4763__bF$buf1 d_lut_BUFX2
ABUFX2_305 [_4763_] _4763__bF$buf0 d_lut_BUFX2
ABUFX2_306 [decoder_trigger] decoder_trigger_bF$buf3 d_lut_BUFX2
ABUFX2_307 [decoder_trigger] decoder_trigger_bF$buf2 d_lut_BUFX2
ABUFX2_308 [decoder_trigger] decoder_trigger_bF$buf1 d_lut_BUFX2
ABUFX2_309 [decoder_trigger] decoder_trigger_bF$buf0 d_lut_BUFX2
ABUFX2_310 [instr_rdinstr] instr_rdinstr_bF$buf4 d_lut_BUFX2
ABUFX2_311 [instr_rdinstr] instr_rdinstr_bF$buf3 d_lut_BUFX2
ABUFX2_312 [instr_rdinstr] instr_rdinstr_bF$buf2 d_lut_BUFX2
ABUFX2_313 [instr_rdinstr] instr_rdinstr_bF$buf1 d_lut_BUFX2
ABUFX2_314 [instr_rdinstr] instr_rdinstr_bF$buf0 d_lut_BUFX2
ABUFX2_315 [_3746_] _3746__bF$buf3 d_lut_BUFX2
ABUFX2_316 [_3746_] _3746__bF$buf2 d_lut_BUFX2
ABUFX2_317 [_3746_] _3746__bF$buf1 d_lut_BUFX2
ABUFX2_318 [_3746_] _3746__bF$buf0 d_lut_BUFX2
ACLKBUF1_1 [clk_hier0_bF$buf10] clk_bF$buf136 d_lut_CLKBUF1
ACLKBUF1_2 [clk_hier0_bF$buf9] clk_bF$buf135 d_lut_CLKBUF1
ACLKBUF1_3 [clk_hier0_bF$buf8] clk_bF$buf134 d_lut_CLKBUF1
ACLKBUF1_4 [clk_hier0_bF$buf7] clk_bF$buf133 d_lut_CLKBUF1
ACLKBUF1_5 [clk_hier0_bF$buf6] clk_bF$buf132 d_lut_CLKBUF1
ACLKBUF1_6 [clk_hier0_bF$buf5] clk_bF$buf131 d_lut_CLKBUF1
ACLKBUF1_7 [clk_hier0_bF$buf4] clk_bF$buf130 d_lut_CLKBUF1
ACLKBUF1_8 [clk_hier0_bF$buf3] clk_bF$buf129 d_lut_CLKBUF1
ACLKBUF1_9 [clk_hier0_bF$buf2] clk_bF$buf128 d_lut_CLKBUF1
ACLKBUF1_10 [clk_hier0_bF$buf1] clk_bF$buf127 d_lut_CLKBUF1
ACLKBUF1_11 [clk_hier0_bF$buf0] clk_bF$buf126 d_lut_CLKBUF1
ACLKBUF1_12 [clk_hier0_bF$buf10] clk_bF$buf125 d_lut_CLKBUF1
ACLKBUF1_13 [clk_hier0_bF$buf9] clk_bF$buf124 d_lut_CLKBUF1
ACLKBUF1_14 [clk_hier0_bF$buf8] clk_bF$buf123 d_lut_CLKBUF1
ACLKBUF1_15 [clk_hier0_bF$buf7] clk_bF$buf122 d_lut_CLKBUF1
ACLKBUF1_16 [clk_hier0_bF$buf6] clk_bF$buf121 d_lut_CLKBUF1
ACLKBUF1_17 [clk_hier0_bF$buf5] clk_bF$buf120 d_lut_CLKBUF1
ACLKBUF1_18 [clk_hier0_bF$buf4] clk_bF$buf119 d_lut_CLKBUF1
ACLKBUF1_19 [clk_hier0_bF$buf3] clk_bF$buf118 d_lut_CLKBUF1
ACLKBUF1_20 [clk_hier0_bF$buf2] clk_bF$buf117 d_lut_CLKBUF1
ACLKBUF1_21 [clk_hier0_bF$buf1] clk_bF$buf116 d_lut_CLKBUF1
ACLKBUF1_22 [clk_hier0_bF$buf0] clk_bF$buf115 d_lut_CLKBUF1
ACLKBUF1_23 [clk_hier0_bF$buf10] clk_bF$buf114 d_lut_CLKBUF1
ACLKBUF1_24 [clk_hier0_bF$buf9] clk_bF$buf113 d_lut_CLKBUF1
ACLKBUF1_25 [clk_hier0_bF$buf8] clk_bF$buf112 d_lut_CLKBUF1
ACLKBUF1_26 [clk_hier0_bF$buf7] clk_bF$buf111 d_lut_CLKBUF1
ACLKBUF1_27 [clk_hier0_bF$buf6] clk_bF$buf110 d_lut_CLKBUF1
ACLKBUF1_28 [clk_hier0_bF$buf5] clk_bF$buf109 d_lut_CLKBUF1
ACLKBUF1_29 [clk_hier0_bF$buf4] clk_bF$buf108 d_lut_CLKBUF1
ACLKBUF1_30 [clk_hier0_bF$buf3] clk_bF$buf107 d_lut_CLKBUF1
ACLKBUF1_31 [clk_hier0_bF$buf2] clk_bF$buf106 d_lut_CLKBUF1
ACLKBUF1_32 [clk_hier0_bF$buf1] clk_bF$buf105 d_lut_CLKBUF1
ACLKBUF1_33 [clk_hier0_bF$buf0] clk_bF$buf104 d_lut_CLKBUF1
ACLKBUF1_34 [clk_hier0_bF$buf10] clk_bF$buf103 d_lut_CLKBUF1
ACLKBUF1_35 [clk_hier0_bF$buf9] clk_bF$buf102 d_lut_CLKBUF1
ACLKBUF1_36 [clk_hier0_bF$buf8] clk_bF$buf101 d_lut_CLKBUF1
ACLKBUF1_37 [clk_hier0_bF$buf7] clk_bF$buf100 d_lut_CLKBUF1
ACLKBUF1_38 [clk_hier0_bF$buf6] clk_bF$buf99 d_lut_CLKBUF1
ACLKBUF1_39 [clk_hier0_bF$buf5] clk_bF$buf98 d_lut_CLKBUF1
ACLKBUF1_40 [clk_hier0_bF$buf4] clk_bF$buf97 d_lut_CLKBUF1
ACLKBUF1_41 [clk_hier0_bF$buf3] clk_bF$buf96 d_lut_CLKBUF1
ACLKBUF1_42 [clk_hier0_bF$buf2] clk_bF$buf95 d_lut_CLKBUF1
ACLKBUF1_43 [clk_hier0_bF$buf1] clk_bF$buf94 d_lut_CLKBUF1
ACLKBUF1_44 [clk_hier0_bF$buf0] clk_bF$buf93 d_lut_CLKBUF1
ACLKBUF1_45 [clk_hier0_bF$buf10] clk_bF$buf92 d_lut_CLKBUF1
ACLKBUF1_46 [clk_hier0_bF$buf9] clk_bF$buf91 d_lut_CLKBUF1
ACLKBUF1_47 [clk_hier0_bF$buf8] clk_bF$buf90 d_lut_CLKBUF1
ACLKBUF1_48 [clk_hier0_bF$buf7] clk_bF$buf89 d_lut_CLKBUF1
ACLKBUF1_49 [clk_hier0_bF$buf6] clk_bF$buf88 d_lut_CLKBUF1
ACLKBUF1_50 [clk_hier0_bF$buf5] clk_bF$buf87 d_lut_CLKBUF1
ACLKBUF1_51 [clk_hier0_bF$buf4] clk_bF$buf86 d_lut_CLKBUF1
ACLKBUF1_52 [clk_hier0_bF$buf3] clk_bF$buf85 d_lut_CLKBUF1
ACLKBUF1_53 [clk_hier0_bF$buf2] clk_bF$buf84 d_lut_CLKBUF1
ACLKBUF1_54 [clk_hier0_bF$buf1] clk_bF$buf83 d_lut_CLKBUF1
ACLKBUF1_55 [clk_hier0_bF$buf0] clk_bF$buf82 d_lut_CLKBUF1
ACLKBUF1_56 [clk_hier0_bF$buf10] clk_bF$buf81 d_lut_CLKBUF1
ACLKBUF1_57 [clk_hier0_bF$buf9] clk_bF$buf80 d_lut_CLKBUF1
ACLKBUF1_58 [clk_hier0_bF$buf8] clk_bF$buf79 d_lut_CLKBUF1
ACLKBUF1_59 [clk_hier0_bF$buf7] clk_bF$buf78 d_lut_CLKBUF1
ACLKBUF1_60 [clk_hier0_bF$buf6] clk_bF$buf77 d_lut_CLKBUF1
ACLKBUF1_61 [clk_hier0_bF$buf5] clk_bF$buf76 d_lut_CLKBUF1
ACLKBUF1_62 [clk_hier0_bF$buf4] clk_bF$buf75 d_lut_CLKBUF1
ACLKBUF1_63 [clk_hier0_bF$buf3] clk_bF$buf74 d_lut_CLKBUF1
ACLKBUF1_64 [clk_hier0_bF$buf2] clk_bF$buf73 d_lut_CLKBUF1
ACLKBUF1_65 [clk_hier0_bF$buf1] clk_bF$buf72 d_lut_CLKBUF1
ACLKBUF1_66 [clk_hier0_bF$buf0] clk_bF$buf71 d_lut_CLKBUF1
ACLKBUF1_67 [clk_hier0_bF$buf10] clk_bF$buf70 d_lut_CLKBUF1
ACLKBUF1_68 [clk_hier0_bF$buf9] clk_bF$buf69 d_lut_CLKBUF1
ACLKBUF1_69 [clk_hier0_bF$buf8] clk_bF$buf68 d_lut_CLKBUF1
ACLKBUF1_70 [clk_hier0_bF$buf7] clk_bF$buf67 d_lut_CLKBUF1
ACLKBUF1_71 [clk_hier0_bF$buf6] clk_bF$buf66 d_lut_CLKBUF1
ACLKBUF1_72 [clk_hier0_bF$buf5] clk_bF$buf65 d_lut_CLKBUF1
ACLKBUF1_73 [clk_hier0_bF$buf4] clk_bF$buf64 d_lut_CLKBUF1
ACLKBUF1_74 [clk_hier0_bF$buf3] clk_bF$buf63 d_lut_CLKBUF1
ACLKBUF1_75 [clk_hier0_bF$buf2] clk_bF$buf62 d_lut_CLKBUF1
ACLKBUF1_76 [clk_hier0_bF$buf1] clk_bF$buf61 d_lut_CLKBUF1
ACLKBUF1_77 [clk_hier0_bF$buf0] clk_bF$buf60 d_lut_CLKBUF1
ACLKBUF1_78 [clk_hier0_bF$buf10] clk_bF$buf59 d_lut_CLKBUF1
ACLKBUF1_79 [clk_hier0_bF$buf9] clk_bF$buf58 d_lut_CLKBUF1
ACLKBUF1_80 [clk_hier0_bF$buf8] clk_bF$buf57 d_lut_CLKBUF1
ACLKBUF1_81 [clk_hier0_bF$buf7] clk_bF$buf56 d_lut_CLKBUF1
ACLKBUF1_82 [clk_hier0_bF$buf6] clk_bF$buf55 d_lut_CLKBUF1
ACLKBUF1_83 [clk_hier0_bF$buf5] clk_bF$buf54 d_lut_CLKBUF1
ACLKBUF1_84 [clk_hier0_bF$buf4] clk_bF$buf53 d_lut_CLKBUF1
ACLKBUF1_85 [clk_hier0_bF$buf3] clk_bF$buf52 d_lut_CLKBUF1
ACLKBUF1_86 [clk_hier0_bF$buf2] clk_bF$buf51 d_lut_CLKBUF1
ACLKBUF1_87 [clk_hier0_bF$buf1] clk_bF$buf50 d_lut_CLKBUF1
ACLKBUF1_88 [clk_hier0_bF$buf0] clk_bF$buf49 d_lut_CLKBUF1
ACLKBUF1_89 [clk_hier0_bF$buf10] clk_bF$buf48 d_lut_CLKBUF1
ACLKBUF1_90 [clk_hier0_bF$buf9] clk_bF$buf47 d_lut_CLKBUF1
ACLKBUF1_91 [clk_hier0_bF$buf8] clk_bF$buf46 d_lut_CLKBUF1
ACLKBUF1_92 [clk_hier0_bF$buf7] clk_bF$buf45 d_lut_CLKBUF1
ACLKBUF1_93 [clk_hier0_bF$buf6] clk_bF$buf44 d_lut_CLKBUF1
ACLKBUF1_94 [clk_hier0_bF$buf5] clk_bF$buf43 d_lut_CLKBUF1
ACLKBUF1_95 [clk_hier0_bF$buf4] clk_bF$buf42 d_lut_CLKBUF1
ACLKBUF1_96 [clk_hier0_bF$buf3] clk_bF$buf41 d_lut_CLKBUF1
ACLKBUF1_97 [clk_hier0_bF$buf2] clk_bF$buf40 d_lut_CLKBUF1
ACLKBUF1_98 [clk_hier0_bF$buf1] clk_bF$buf39 d_lut_CLKBUF1
ACLKBUF1_99 [clk_hier0_bF$buf0] clk_bF$buf38 d_lut_CLKBUF1
ACLKBUF1_100 [clk_hier0_bF$buf10] clk_bF$buf37 d_lut_CLKBUF1
ACLKBUF1_101 [clk_hier0_bF$buf9] clk_bF$buf36 d_lut_CLKBUF1
ACLKBUF1_102 [clk_hier0_bF$buf8] clk_bF$buf35 d_lut_CLKBUF1
ACLKBUF1_103 [clk_hier0_bF$buf7] clk_bF$buf34 d_lut_CLKBUF1
ACLKBUF1_104 [clk_hier0_bF$buf6] clk_bF$buf33 d_lut_CLKBUF1
ACLKBUF1_105 [clk_hier0_bF$buf5] clk_bF$buf32 d_lut_CLKBUF1
ACLKBUF1_106 [clk_hier0_bF$buf4] clk_bF$buf31 d_lut_CLKBUF1
ACLKBUF1_107 [clk_hier0_bF$buf3] clk_bF$buf30 d_lut_CLKBUF1
ACLKBUF1_108 [clk_hier0_bF$buf2] clk_bF$buf29 d_lut_CLKBUF1
ACLKBUF1_109 [clk_hier0_bF$buf1] clk_bF$buf28 d_lut_CLKBUF1
ACLKBUF1_110 [clk_hier0_bF$buf0] clk_bF$buf27 d_lut_CLKBUF1