*SPICE netlist created from BLIF module picorv32 by blif2BSpice
.include /usr/local/share/qflow/tech/osu018/osu018_stdcells.sp
.subckt picorv32 vdd gnd clk resetn mem_ready mem_rdata[0] mem_rdata[1] mem_rdata[2] mem_rdata[3] mem_rdata[4] mem_rdata[5] mem_rdata[6] mem_rdata[7] mem_rdata[8] mem_rdata[9] mem_rdata[10] mem_rdata[11] mem_rdata[12] mem_rdata[13] mem_rdata[14] mem_rdata[15] mem_rdata[16] mem_rdata[17] mem_rdata[18] mem_rdata[19] mem_rdata[20] mem_rdata[21] mem_rdata[22] mem_rdata[23] mem_rdata[24] mem_rdata[25] mem_rdata[26] mem_rdata[27] mem_rdata[28] mem_rdata[29] mem_rdata[30] mem_rdata[31] pcpi_wr pcpi_rd[0] pcpi_rd[1] pcpi_rd[2] pcpi_rd[3] pcpi_rd[4] pcpi_rd[5] pcpi_rd[6] pcpi_rd[7] pcpi_rd[8] pcpi_rd[9] pcpi_rd[10] pcpi_rd[11] pcpi_rd[12] pcpi_rd[13] pcpi_rd[14] pcpi_rd[15] pcpi_rd[16] pcpi_rd[17] pcpi_rd[18] pcpi_rd[19] pcpi_rd[20] pcpi_rd[21] pcpi_rd[22] pcpi_rd[23] pcpi_rd[24] pcpi_rd[25] pcpi_rd[26] pcpi_rd[27] pcpi_rd[28] pcpi_rd[29] pcpi_rd[30] pcpi_rd[31] pcpi_wait pcpi_ready irq[0] irq[1] irq[2] irq[3] irq[4] irq[5] irq[6] irq[7] irq[8] irq[9] irq[10] irq[11] irq[12] irq[13] irq[14] irq[15] irq[16] irq[17] irq[18] irq[19] irq[20] irq[21] irq[22] irq[23] irq[24] irq[25] irq[26] irq[27] irq[28] irq[29] irq[30] irq[31] trap mem_valid mem_instr mem_addr[0] mem_addr[1] mem_addr[2] mem_addr[3] mem_addr[4] mem_addr[5] mem_addr[6] mem_addr[7] mem_addr[8] mem_addr[9] mem_addr[10] mem_addr[11] mem_addr[12] mem_addr[13] mem_addr[14] mem_addr[15] mem_addr[16] mem_addr[17] mem_addr[18] mem_addr[19] mem_addr[20] mem_addr[21] mem_addr[22] mem_addr[23] mem_addr[24] mem_addr[25] mem_addr[26] mem_addr[27] mem_addr[28] mem_addr[29] mem_addr[30] mem_addr[31] mem_wdata[0] mem_wdata[1] mem_wdata[2] mem_wdata[3] mem_wdata[4] mem_wdata[5] mem_wdata[6] mem_wdata[7] mem_wdata[8] mem_wdata[9] mem_wdata[10] mem_wdata[11] mem_wdata[12] mem_wdata[13] mem_wdata[14] mem_wdata[15] mem_wdata[16] mem_wdata[17] mem_wdata[18] mem_wdata[19] mem_wdata[20] mem_wdata[21] mem_wdata[22] mem_wdata[23] mem_wdata[24] mem_wdata[25] mem_wdata[26] mem_wdata[27] mem_wdata[28] mem_wdata[29] mem_wdata[30] mem_wdata[31] mem_wstrb[0] mem_wstrb[1] mem_wstrb[2] mem_wstrb[3] mem_la_read mem_la_write mem_la_addr[0] mem_la_addr[1] mem_la_addr[2] mem_la_addr[3] mem_la_addr[4] mem_la_addr[5] mem_la_addr[6] mem_la_addr[7] mem_la_addr[8] mem_la_addr[9] mem_la_addr[10] mem_la_addr[11] mem_la_addr[12] mem_la_addr[13] mem_la_addr[14] mem_la_addr[15] mem_la_addr[16] mem_la_addr[17] mem_la_addr[18] mem_la_addr[19] mem_la_addr[20] mem_la_addr[21] mem_la_addr[22] mem_la_addr[23] mem_la_addr[24] mem_la_addr[25] mem_la_addr[26] mem_la_addr[27] mem_la_addr[28] mem_la_addr[29] mem_la_addr[30] mem_la_addr[31] mem_la_wdata[0] mem_la_wdata[1] mem_la_wdata[2] mem_la_wdata[3] mem_la_wdata[4] mem_la_wdata[5] mem_la_wdata[6] mem_la_wdata[7] mem_la_wdata[8] mem_la_wdata[9] mem_la_wdata[10] mem_la_wdata[11] mem_la_wdata[12] mem_la_wdata[13] mem_la_wdata[14] mem_la_wdata[15] mem_la_wdata[16] mem_la_wdata[17] mem_la_wdata[18] mem_la_wdata[19] mem_la_wdata[20] mem_la_wdata[21] mem_la_wdata[22] mem_la_wdata[23] mem_la_wdata[24] mem_la_wdata[25] mem_la_wdata[26] mem_la_wdata[27] mem_la_wdata[28] mem_la_wdata[29] mem_la_wdata[30] mem_la_wdata[31] mem_la_wstrb[0] mem_la_wstrb[1] mem_la_wstrb[2] mem_la_wstrb[3] pcpi_valid pcpi_insn[0] pcpi_insn[1] pcpi_insn[2] pcpi_insn[3] pcpi_insn[4] pcpi_insn[5] pcpi_insn[6] pcpi_insn[7] pcpi_insn[8] pcpi_insn[9] pcpi_insn[10] pcpi_insn[11] pcpi_insn[12] pcpi_insn[13] pcpi_insn[14] pcpi_insn[15] pcpi_insn[16] pcpi_insn[17] pcpi_insn[18] pcpi_insn[19] pcpi_insn[20] pcpi_insn[21] pcpi_insn[22] pcpi_insn[23] pcpi_insn[24] pcpi_insn[25] pcpi_insn[26] pcpi_insn[27] pcpi_insn[28] pcpi_insn[29] pcpi_insn[30] pcpi_insn[31] pcpi_rs1[0] pcpi_rs1[1] pcpi_rs1[2] pcpi_rs1[3] pcpi_rs1[4] pcpi_rs1[5] pcpi_rs1[6] pcpi_rs1[7] pcpi_rs1[8] pcpi_rs1[9] pcpi_rs1[10] pcpi_rs1[11] pcpi_rs1[12] pcpi_rs1[13] pcpi_rs1[14] pcpi_rs1[15] pcpi_rs1[16] pcpi_rs1[17] pcpi_rs1[18] pcpi_rs1[19] pcpi_rs1[20] pcpi_rs1[21] pcpi_rs1[22] pcpi_rs1[23] pcpi_rs1[24] pcpi_rs1[25] pcpi_rs1[26] pcpi_rs1[27] pcpi_rs1[28] pcpi_rs1[29] pcpi_rs1[30] pcpi_rs1[31] pcpi_rs2[0] pcpi_rs2[1] pcpi_rs2[2] pcpi_rs2[3] pcpi_rs2[4] pcpi_rs2[5] pcpi_rs2[6] pcpi_rs2[7] pcpi_rs2[8] pcpi_rs2[9] pcpi_rs2[10] pcpi_rs2[11] pcpi_rs2[12] pcpi_rs2[13] pcpi_rs2[14] pcpi_rs2[15] pcpi_rs2[16] pcpi_rs2[17] pcpi_rs2[18] pcpi_rs2[19] pcpi_rs2[20] pcpi_rs2[21] pcpi_rs2[22] pcpi_rs2[23] pcpi_rs2[24] pcpi_rs2[25] pcpi_rs2[26] pcpi_rs2[27] pcpi_rs2[28] pcpi_rs2[29] pcpi_rs2[30] pcpi_rs2[31] eoi[0] eoi[1] eoi[2] eoi[3] eoi[4] eoi[5] eoi[6] eoi[7] eoi[8] eoi[9] eoi[10] eoi[11] eoi[12] eoi[13] eoi[14] eoi[15] eoi[16] eoi[17] eoi[18] eoi[19] eoi[20] eoi[21] eoi[22] eoi[23] eoi[24] eoi[25] eoi[26] eoi[27] eoi[28] eoi[29] eoi[30] eoi[31] trace_valid trace_data[0] trace_data[1] trace_data[2] trace_data[3] trace_data[4] trace_data[5] trace_data[6] trace_data[7] trace_data[8] trace_data[9] trace_data[10] trace_data[11] trace_data[12] trace_data[13] trace_data[14] trace_data[15] trace_data[16] trace_data[17] trace_data[18] trace_data[19] trace_data[20] trace_data[21] trace_data[22] trace_data[23] trace_data[24] trace_data[25] trace_data[26] trace_data[27] trace_data[28] trace_data[29] trace_data[30] trace_data[31] trace_data[32] trace_data[33] trace_data[34] trace_data[35] 
XBUFX2_1 vdd gnd _7556_ _7556__hier0_bF$buf5 BUFX2
XBUFX2_2 vdd gnd _7556_ _7556__hier0_bF$buf4 BUFX2
XBUFX2_3 vdd gnd _7556_ _7556__hier0_bF$buf3 BUFX2
XBUFX2_4 vdd gnd _7556_ _7556__hier0_bF$buf2 BUFX2
XBUFX2_5 vdd gnd _7556_ _7556__hier0_bF$buf1 BUFX2
XBUFX2_6 vdd gnd _7556_ _7556__hier0_bF$buf0 BUFX2
XBUFX2_7 vdd gnd clk clk_hier0_bF$buf10 BUFX2
XBUFX2_8 vdd gnd clk clk_hier0_bF$buf9 BUFX2
XBUFX2_9 vdd gnd clk clk_hier0_bF$buf8 BUFX2
XBUFX2_10 vdd gnd clk clk_hier0_bF$buf7 BUFX2
XBUFX2_11 vdd gnd clk clk_hier0_bF$buf6 BUFX2
XBUFX2_12 vdd gnd clk clk_hier0_bF$buf5 BUFX2
XBUFX2_13 vdd gnd clk clk_hier0_bF$buf4 BUFX2
XBUFX2_14 vdd gnd clk clk_hier0_bF$buf3 BUFX2
XBUFX2_15 vdd gnd clk clk_hier0_bF$buf2 BUFX2
XBUFX2_16 vdd gnd clk clk_hier0_bF$buf1 BUFX2
XBUFX2_17 vdd gnd clk clk_hier0_bF$buf0 BUFX2
XBUFX2_18 vdd gnd decoded_rs2[1] decoded_rs2[1]_hier0_bF$buf5 BUFX2
XBUFX2_19 vdd gnd decoded_rs2[1] decoded_rs2[1]_hier0_bF$buf4 BUFX2
XBUFX2_20 vdd gnd decoded_rs2[1] decoded_rs2[1]_hier0_bF$buf3 BUFX2
XBUFX2_21 vdd gnd decoded_rs2[1] decoded_rs2[1]_hier0_bF$buf2 BUFX2
XBUFX2_22 vdd gnd decoded_rs2[1] decoded_rs2[1]_hier0_bF$buf1 BUFX2
XBUFX2_23 vdd gnd decoded_rs2[1] decoded_rs2[1]_hier0_bF$buf0 BUFX2
XBUFX2_24 vdd gnd decoded_rs1[1] decoded_rs1[1]_hier0_bF$buf5 BUFX2
XBUFX2_25 vdd gnd decoded_rs1[1] decoded_rs1[1]_hier0_bF$buf4 BUFX2
XBUFX2_26 vdd gnd decoded_rs1[1] decoded_rs1[1]_hier0_bF$buf3 BUFX2
XBUFX2_27 vdd gnd decoded_rs1[1] decoded_rs1[1]_hier0_bF$buf2 BUFX2
XBUFX2_28 vdd gnd decoded_rs1[1] decoded_rs1[1]_hier0_bF$buf1 BUFX2
XBUFX2_29 vdd gnd decoded_rs1[1] decoded_rs1[1]_hier0_bF$buf0 BUFX2
XBUFX2_30 vdd gnd _7569_ _7569__hier0_bF$buf6 BUFX2
XBUFX2_31 vdd gnd _7569_ _7569__hier0_bF$buf5 BUFX2
XBUFX2_32 vdd gnd _7569_ _7569__hier0_bF$buf4 BUFX2
XBUFX2_33 vdd gnd _7569_ _7569__hier0_bF$buf3 BUFX2
XBUFX2_34 vdd gnd _7569_ _7569__hier0_bF$buf2 BUFX2
XBUFX2_35 vdd gnd _7569_ _7569__hier0_bF$buf1 BUFX2
XBUFX2_36 vdd gnd _7569_ _7569__hier0_bF$buf0 BUFX2
XBUFX2_37 vdd gnd decoded_rs2[0] decoded_rs2[0]_hier0_bF$buf7 BUFX2
XBUFX2_38 vdd gnd decoded_rs2[0] decoded_rs2[0]_hier0_bF$buf6 BUFX2
XBUFX2_39 vdd gnd decoded_rs2[0] decoded_rs2[0]_hier0_bF$buf5 BUFX2
XBUFX2_40 vdd gnd decoded_rs2[0] decoded_rs2[0]_hier0_bF$buf4 BUFX2
XBUFX2_41 vdd gnd decoded_rs2[0] decoded_rs2[0]_hier0_bF$buf3 BUFX2
XBUFX2_42 vdd gnd decoded_rs2[0] decoded_rs2[0]_hier0_bF$buf2 BUFX2
XBUFX2_43 vdd gnd decoded_rs2[0] decoded_rs2[0]_hier0_bF$buf1 BUFX2
XBUFX2_44 vdd gnd decoded_rs2[0] decoded_rs2[0]_hier0_bF$buf0 BUFX2
XBUFX2_45 vdd gnd decoded_rs1[0] decoded_rs1[0]_hier0_bF$buf6 BUFX2
XBUFX2_46 vdd gnd decoded_rs1[0] decoded_rs1[0]_hier0_bF$buf5 BUFX2
XBUFX2_47 vdd gnd decoded_rs1[0] decoded_rs1[0]_hier0_bF$buf4 BUFX2
XBUFX2_48 vdd gnd decoded_rs1[0] decoded_rs1[0]_hier0_bF$buf3 BUFX2
XBUFX2_49 vdd gnd decoded_rs1[0] decoded_rs1[0]_hier0_bF$buf2 BUFX2
XBUFX2_50 vdd gnd decoded_rs1[0] decoded_rs1[0]_hier0_bF$buf1 BUFX2
XBUFX2_51 vdd gnd decoded_rs1[0] decoded_rs1[0]_hier0_bF$buf0 BUFX2
XBUFX2_52 vdd gnd _1601_ _1601__bF$buf4 BUFX2
XBUFX2_53 vdd gnd _1601_ _1601__bF$buf3 BUFX2
XBUFX2_54 vdd gnd _1601_ _1601__bF$buf2 BUFX2
XBUFX2_55 vdd gnd _1601_ _1601__bF$buf1 BUFX2
XBUFX2_56 vdd gnd _1601_ _1601__bF$buf0 BUFX2
XBUFX2_57 vdd gnd _10099_ _10099__bF$buf3 BUFX2
XBUFX2_58 vdd gnd _10099_ _10099__bF$buf2 BUFX2
XBUFX2_59 vdd gnd _10099_ _10099__bF$buf1 BUFX2
XBUFX2_60 vdd gnd _10099_ _10099__bF$buf0 BUFX2
XBUFX2_61 vdd gnd _4587_ _4587__bF$buf3 BUFX2
XBUFX2_62 vdd gnd _4587_ _4587__bF$buf2 BUFX2
XBUFX2_63 vdd gnd _4587_ _4587__bF$buf1 BUFX2
XBUFX2_64 vdd gnd _4587_ _4587__bF$buf0 BUFX2
XBUFX2_65 vdd gnd _5813_ _5813__bF$buf7 BUFX2
XBUFX2_66 vdd gnd _5813_ _5813__bF$buf6 BUFX2
XBUFX2_67 vdd gnd _5813_ _5813__bF$buf5 BUFX2
XBUFX2_68 vdd gnd _5813_ _5813__bF$buf4 BUFX2
XBUFX2_69 vdd gnd _5813_ _5813__bF$buf3 BUFX2
XBUFX2_70 vdd gnd _5813_ _5813__bF$buf2 BUFX2
XBUFX2_71 vdd gnd _5813_ _5813__bF$buf1 BUFX2
XBUFX2_72 vdd gnd _5813_ _5813__bF$buf0 BUFX2
XBUFX2_73 vdd gnd _7556__hier0_bF$buf5 _7556__bF$buf42 BUFX2
XBUFX2_74 vdd gnd _7556__hier0_bF$buf4 _7556__bF$buf41 BUFX2
XBUFX2_75 vdd gnd _7556__hier0_bF$buf3 _7556__bF$buf40 BUFX2
XBUFX2_76 vdd gnd _7556__hier0_bF$buf2 _7556__bF$buf39 BUFX2
XBUFX2_77 vdd gnd _7556__hier0_bF$buf1 _7556__bF$buf38 BUFX2
XBUFX2_78 vdd gnd _7556__hier0_bF$buf0 _7556__bF$buf37 BUFX2
XBUFX2_79 vdd gnd _7556__hier0_bF$buf5 _7556__bF$buf36 BUFX2
XBUFX2_80 vdd gnd _7556__hier0_bF$buf4 _7556__bF$buf35 BUFX2
XBUFX2_81 vdd gnd _7556__hier0_bF$buf3 _7556__bF$buf34 BUFX2
XBUFX2_82 vdd gnd _7556__hier0_bF$buf2 _7556__bF$buf33 BUFX2
XBUFX2_83 vdd gnd _7556__hier0_bF$buf1 _7556__bF$buf32 BUFX2
XBUFX2_84 vdd gnd _7556__hier0_bF$buf0 _7556__bF$buf31 BUFX2
XBUFX2_85 vdd gnd _7556__hier0_bF$buf5 _7556__bF$buf30 BUFX2
XBUFX2_86 vdd gnd _7556__hier0_bF$buf4 _7556__bF$buf29 BUFX2
XBUFX2_87 vdd gnd _7556__hier0_bF$buf3 _7556__bF$buf28 BUFX2
XBUFX2_88 vdd gnd _7556__hier0_bF$buf2 _7556__bF$buf27 BUFX2
XBUFX2_89 vdd gnd _7556__hier0_bF$buf1 _7556__bF$buf26 BUFX2
XBUFX2_90 vdd gnd _7556__hier0_bF$buf0 _7556__bF$buf25 BUFX2
XBUFX2_91 vdd gnd _7556__hier0_bF$buf5 _7556__bF$buf24 BUFX2
XBUFX2_92 vdd gnd _7556__hier0_bF$buf4 _7556__bF$buf23 BUFX2
XBUFX2_93 vdd gnd _7556__hier0_bF$buf3 _7556__bF$buf22 BUFX2
XBUFX2_94 vdd gnd _7556__hier0_bF$buf2 _7556__bF$buf21 BUFX2
XBUFX2_95 vdd gnd _7556__hier0_bF$buf1 _7556__bF$buf20 BUFX2
XBUFX2_96 vdd gnd _7556__hier0_bF$buf0 _7556__bF$buf19 BUFX2
XBUFX2_97 vdd gnd _7556__hier0_bF$buf5 _7556__bF$buf18 BUFX2
XBUFX2_98 vdd gnd _7556__hier0_bF$buf4 _7556__bF$buf17 BUFX2
XBUFX2_99 vdd gnd _7556__hier0_bF$buf3 _7556__bF$buf16 BUFX2
XBUFX2_100 vdd gnd _7556__hier0_bF$buf2 _7556__bF$buf15 BUFX2
XBUFX2_101 vdd gnd _7556__hier0_bF$buf1 _7556__bF$buf14 BUFX2
XBUFX2_102 vdd gnd _7556__hier0_bF$buf0 _7556__bF$buf13 BUFX2
XBUFX2_103 vdd gnd _7556__hier0_bF$buf5 _7556__bF$buf12 BUFX2
XBUFX2_104 vdd gnd _7556__hier0_bF$buf4 _7556__bF$buf11 BUFX2
XBUFX2_105 vdd gnd _7556__hier0_bF$buf3 _7556__bF$buf10 BUFX2
XBUFX2_106 vdd gnd _7556__hier0_bF$buf2 _7556__bF$buf9 BUFX2
XBUFX2_107 vdd gnd _7556__hier0_bF$buf1 _7556__bF$buf8 BUFX2
XBUFX2_108 vdd gnd _7556__hier0_bF$buf0 _7556__bF$buf7 BUFX2
XBUFX2_109 vdd gnd _7556__hier0_bF$buf5 _7556__bF$buf6 BUFX2
XBUFX2_110 vdd gnd _7556__hier0_bF$buf4 _7556__bF$buf5 BUFX2
XBUFX2_111 vdd gnd _7556__hier0_bF$buf3 _7556__bF$buf4 BUFX2
XBUFX2_112 vdd gnd _7556__hier0_bF$buf2 _7556__bF$buf3 BUFX2
XBUFX2_113 vdd gnd _7556__hier0_bF$buf1 _7556__bF$buf2 BUFX2
XBUFX2_114 vdd gnd _7556__hier0_bF$buf0 _7556__bF$buf1 BUFX2
XBUFX2_115 vdd gnd _7556__hier0_bF$buf5 _7556__bF$buf0 BUFX2
XBUFX2_116 vdd gnd _4740_ _4740__bF$buf4 BUFX2
XBUFX2_117 vdd gnd _4740_ _4740__bF$buf3 BUFX2
XBUFX2_118 vdd gnd _4740_ _4740__bF$buf2 BUFX2
XBUFX2_119 vdd gnd _4740_ _4740__bF$buf1 BUFX2
XBUFX2_120 vdd gnd _4740_ _4740__bF$buf0 BUFX2
XBUFX2_121 vdd gnd _4605_ _4605__bF$buf5 BUFX2
XBUFX2_122 vdd gnd _4605_ _4605__bF$buf4 BUFX2
XBUFX2_123 vdd gnd _4605_ _4605__bF$buf3 BUFX2
XBUFX2_124 vdd gnd _4605_ _4605__bF$buf2 BUFX2
XBUFX2_125 vdd gnd _4605_ _4605__bF$buf1 BUFX2
XBUFX2_126 vdd gnd _4605_ _4605__bF$buf0 BUFX2
XBUFX2_127 vdd gnd _3914_ _3914__bF$buf4 BUFX2
XBUFX2_128 vdd gnd _3914_ _3914__bF$buf3 BUFX2
XBUFX2_129 vdd gnd _3914_ _3914__bF$buf2 BUFX2
XBUFX2_130 vdd gnd _3914_ _3914__bF$buf1 BUFX2
XBUFX2_131 vdd gnd _3914_ _3914__bF$buf0 BUFX2
XBUFX2_132 vdd gnd decoded_rs2[2] decoded_rs2[2_bF$buf8] BUFX2
XBUFX2_133 vdd gnd decoded_rs2[2] decoded_rs2[2_bF$buf7] BUFX2
XBUFX2_134 vdd gnd decoded_rs2[2] decoded_rs2[2_bF$buf6] BUFX2
XBUFX2_135 vdd gnd decoded_rs2[2] decoded_rs2[2_bF$buf5] BUFX2
XBUFX2_136 vdd gnd decoded_rs2[2] decoded_rs2[2_bF$buf4] BUFX2
XBUFX2_137 vdd gnd decoded_rs2[2] decoded_rs2[2_bF$buf3] BUFX2
XBUFX2_138 vdd gnd decoded_rs2[2] decoded_rs2[2_bF$buf2] BUFX2
XBUFX2_139 vdd gnd decoded_rs2[2] decoded_rs2[2_bF$buf1] BUFX2
XBUFX2_140 vdd gnd decoded_rs2[2] decoded_rs2[2_bF$buf0] BUFX2
XBUFX2_141 vdd gnd _2171_ _2171__bF$buf8 BUFX2
XBUFX2_142 vdd gnd _2171_ _2171__bF$buf7 BUFX2
XBUFX2_143 vdd gnd _2171_ _2171__bF$buf6 BUFX2
XBUFX2_144 vdd gnd _2171_ _2171__bF$buf5 BUFX2
XBUFX2_145 vdd gnd _2171_ _2171__bF$buf4 BUFX2
XBUFX2_146 vdd gnd _2171_ _2171__bF$buf3 BUFX2
XBUFX2_147 vdd gnd _2171_ _2171__bF$buf2 BUFX2
XBUFX2_148 vdd gnd _2171_ _2171__bF$buf1 BUFX2
XBUFX2_149 vdd gnd _2171_ _2171__bF$buf0 BUFX2
XBUFX2_150 vdd gnd _5140_ _5140__bF$buf5 BUFX2
XBUFX2_151 vdd gnd _5140_ _5140__bF$buf4 BUFX2
XBUFX2_152 vdd gnd _5140_ _5140__bF$buf3 BUFX2
XBUFX2_153 vdd gnd _5140_ _5140__bF$buf2 BUFX2
XBUFX2_154 vdd gnd _5140_ _5140__bF$buf1 BUFX2
XBUFX2_155 vdd gnd _5140_ _5140__bF$buf0 BUFX2
XBUFX2_156 vdd gnd _4925_ _4925__bF$buf4 BUFX2
XBUFX2_157 vdd gnd _4925_ _4925__bF$buf3 BUFX2
XBUFX2_158 vdd gnd _4925_ _4925__bF$buf2 BUFX2
XBUFX2_159 vdd gnd _4925_ _4925__bF$buf1 BUFX2
XBUFX2_160 vdd gnd _4925_ _4925__bF$buf0 BUFX2
XBUFX2_161 vdd gnd _4637_ _4637__bF$buf3 BUFX2
XBUFX2_162 vdd gnd _4637_ _4637__bF$buf2 BUFX2
XBUFX2_163 vdd gnd _4637_ _4637__bF$buf1 BUFX2
XBUFX2_164 vdd gnd _4637_ _4637__bF$buf0 BUFX2
XBUFX2_165 vdd gnd decoded_rs1[2] decoded_rs1[2_bF$buf12] BUFX2
XBUFX2_166 vdd gnd decoded_rs1[2] decoded_rs1[2_bF$buf11] BUFX2
XBUFX2_167 vdd gnd decoded_rs1[2] decoded_rs1[2_bF$buf10] BUFX2
XBUFX2_168 vdd gnd decoded_rs1[2] decoded_rs1[2_bF$buf9] BUFX2
XBUFX2_169 vdd gnd decoded_rs1[2] decoded_rs1[2_bF$buf8] BUFX2
XBUFX2_170 vdd gnd decoded_rs1[2] decoded_rs1[2_bF$buf7] BUFX2
XBUFX2_171 vdd gnd decoded_rs1[2] decoded_rs1[2_bF$buf6] BUFX2
XBUFX2_172 vdd gnd decoded_rs1[2] decoded_rs1[2_bF$buf5] BUFX2
XBUFX2_173 vdd gnd decoded_rs1[2] decoded_rs1[2_bF$buf4] BUFX2
XBUFX2_174 vdd gnd decoded_rs1[2] decoded_rs1[2_bF$buf3] BUFX2
XBUFX2_175 vdd gnd decoded_rs1[2] decoded_rs1[2_bF$buf2] BUFX2
XBUFX2_176 vdd gnd decoded_rs1[2] decoded_rs1[2_bF$buf1] BUFX2
XBUFX2_177 vdd gnd decoded_rs1[2] decoded_rs1[2_bF$buf0] BUFX2
XBUFX2_178 vdd gnd _3755_ _3755__bF$buf3 BUFX2
XBUFX2_179 vdd gnd _3755_ _3755__bF$buf2 BUFX2
XBUFX2_180 vdd gnd _3755_ _3755__bF$buf1 BUFX2
XBUFX2_181 vdd gnd _3755_ _3755__bF$buf0 BUFX2
XBUFX2_182 vdd gnd _1630_ _1630__bF$buf3 BUFX2
XBUFX2_183 vdd gnd _1630_ _1630__bF$buf2 BUFX2
XBUFX2_184 vdd gnd _1630_ _1630__bF$buf1 BUFX2
XBUFX2_185 vdd gnd _1630_ _1630__bF$buf0 BUFX2
XBUFX2_186 vdd gnd _2071_ _2071__bF$buf4 BUFX2
XBUFX2_187 vdd gnd _2071_ _2071__bF$buf3 BUFX2
XBUFX2_188 vdd gnd _2071_ _2071__bF$buf2 BUFX2
XBUFX2_189 vdd gnd _2071_ _2071__bF$buf1 BUFX2
XBUFX2_190 vdd gnd _2071_ _2071__bF$buf0 BUFX2
XBUFX2_191 vdd gnd cpu_state[5] cpu_state[5_bF$buf3] BUFX2
XBUFX2_192 vdd gnd cpu_state[5] cpu_state[5_bF$buf2] BUFX2
XBUFX2_193 vdd gnd cpu_state[5] cpu_state[5_bF$buf1] BUFX2
XBUFX2_194 vdd gnd cpu_state[5] cpu_state[5_bF$buf0] BUFX2
XBUFX2_195 vdd gnd _5707_ _5707__bF$buf3 BUFX2
XBUFX2_196 vdd gnd _5707_ _5707__bF$buf2 BUFX2
XBUFX2_197 vdd gnd _5707_ _5707__bF$buf1 BUFX2
XBUFX2_198 vdd gnd _5707_ _5707__bF$buf0 BUFX2
XBUFX2_199 vdd gnd _4731_ _4731__bF$buf4 BUFX2
XBUFX2_200 vdd gnd _4731_ _4731__bF$buf3 BUFX2
XBUFX2_201 vdd gnd _4731_ _4731__bF$buf2 BUFX2
XBUFX2_202 vdd gnd _4731_ _4731__bF$buf1 BUFX2
XBUFX2_203 vdd gnd _4731_ _4731__bF$buf0 BUFX2
XBUFX2_204 vdd gnd _4540_ _4540__bF$buf6 BUFX2
XBUFX2_205 vdd gnd _4540_ _4540__bF$buf5 BUFX2
XBUFX2_206 vdd gnd _4540_ _4540__bF$buf4 BUFX2
XBUFX2_207 vdd gnd _4540_ _4540__bF$buf3 BUFX2
XBUFX2_208 vdd gnd _4540_ _4540__bF$buf2 BUFX2
XBUFX2_209 vdd gnd _4540_ _4540__bF$buf1 BUFX2
XBUFX2_210 vdd gnd _4540_ _4540__bF$buf0 BUFX2
XBUFX2_211 vdd gnd _7700_ _7700__bF$buf5 BUFX2
XBUFX2_212 vdd gnd _7700_ _7700__bF$buf4 BUFX2
XBUFX2_213 vdd gnd _7700_ _7700__bF$buf3 BUFX2
XBUFX2_214 vdd gnd _7700_ _7700__bF$buf2 BUFX2
XBUFX2_215 vdd gnd _7700_ _7700__bF$buf1 BUFX2
XBUFX2_216 vdd gnd _7700_ _7700__bF$buf0 BUFX2
XBUFX2_217 vdd gnd _10728_[3] _10728_[3_bF$buf4] BUFX2
XBUFX2_218 vdd gnd _10728_[3] _10728_[3_bF$buf3] BUFX2
XBUFX2_219 vdd gnd _10728_[3] _10728_[3_bF$buf2] BUFX2
XBUFX2_220 vdd gnd _10728_[3] _10728_[3_bF$buf1] BUFX2
XBUFX2_221 vdd gnd _10728_[3] _10728_[3_bF$buf0] BUFX2
XBUFX2_222 vdd gnd _4863_ _4863__bF$buf4 BUFX2
XBUFX2_223 vdd gnd _4863_ _4863__bF$buf3 BUFX2
XBUFX2_224 vdd gnd _4863_ _4863__bF$buf2 BUFX2
XBUFX2_225 vdd gnd _4863_ _4863__bF$buf1 BUFX2
XBUFX2_226 vdd gnd _4863_ _4863__bF$buf0 BUFX2
XBUFX2_227 vdd gnd _4919_ _4919__bF$buf4 BUFX2
XBUFX2_228 vdd gnd _4919_ _4919__bF$buf3 BUFX2
XBUFX2_229 vdd gnd _4919_ _4919__bF$buf2 BUFX2
XBUFX2_230 vdd gnd _4919_ _4919__bF$buf1 BUFX2
XBUFX2_231 vdd gnd _4919_ _4919__bF$buf0 BUFX2
XBUFX2_232 vdd gnd _3981_ _3981__bF$buf4 BUFX2
XBUFX2_233 vdd gnd _3981_ _3981__bF$buf3 BUFX2
XBUFX2_234 vdd gnd _3981_ _3981__bF$buf2 BUFX2
XBUFX2_235 vdd gnd _3981_ _3981__bF$buf1 BUFX2
XBUFX2_236 vdd gnd _3981_ _3981__bF$buf0 BUFX2
XBUFX2_237 vdd gnd _4575_ _4575__bF$buf4 BUFX2
XBUFX2_238 vdd gnd _4575_ _4575__bF$buf3 BUFX2
XBUFX2_239 vdd gnd _4575_ _4575__bF$buf2 BUFX2
XBUFX2_240 vdd gnd _4575_ _4575__bF$buf1 BUFX2
XBUFX2_241 vdd gnd _4575_ _4575__bF$buf0 BUFX2
XBUFX2_242 vdd gnd _3846_ _3846__bF$buf4 BUFX2
XBUFX2_243 vdd gnd _3846_ _3846__bF$buf3 BUFX2
XBUFX2_244 vdd gnd _3846_ _3846__bF$buf2 BUFX2
XBUFX2_245 vdd gnd _3846_ _3846__bF$buf1 BUFX2
XBUFX2_246 vdd gnd _3846_ _3846__bF$buf0 BUFX2
XBUFX2_247 vdd gnd is_lui_auipc_jal_jalr_addi_add_sub is_lui_auipc_jal_jalr_addi_add_sub_bF$buf4 BUFX2
XBUFX2_248 vdd gnd is_lui_auipc_jal_jalr_addi_add_sub is_lui_auipc_jal_jalr_addi_add_sub_bF$buf3 BUFX2
XBUFX2_249 vdd gnd is_lui_auipc_jal_jalr_addi_add_sub is_lui_auipc_jal_jalr_addi_add_sub_bF$buf2 BUFX2
XBUFX2_250 vdd gnd is_lui_auipc_jal_jalr_addi_add_sub is_lui_auipc_jal_jalr_addi_add_sub_bF$buf1 BUFX2
XBUFX2_251 vdd gnd is_lui_auipc_jal_jalr_addi_add_sub is_lui_auipc_jal_jalr_addi_add_sub_bF$buf0 BUFX2
XBUFX2_252 vdd gnd latched_stalu latched_stalu_bF$buf6 BUFX2
XBUFX2_253 vdd gnd latched_stalu latched_stalu_bF$buf5 BUFX2
XBUFX2_254 vdd gnd latched_stalu latched_stalu_bF$buf4 BUFX2
XBUFX2_255 vdd gnd latched_stalu latched_stalu_bF$buf3 BUFX2
XBUFX2_256 vdd gnd latched_stalu latched_stalu_bF$buf2 BUFX2
XBUFX2_257 vdd gnd latched_stalu latched_stalu_bF$buf1 BUFX2
XBUFX2_258 vdd gnd latched_stalu latched_stalu_bF$buf0 BUFX2
XBUFX2_259 vdd gnd cpu_state[2] cpu_state[2_bF$buf5] BUFX2
XBUFX2_260 vdd gnd cpu_state[2] cpu_state[2_bF$buf4] BUFX2
XBUFX2_261 vdd gnd cpu_state[2] cpu_state[2_bF$buf3] BUFX2
XBUFX2_262 vdd gnd cpu_state[2] cpu_state[2_bF$buf2] BUFX2
XBUFX2_263 vdd gnd cpu_state[2] cpu_state[2_bF$buf1] BUFX2
XBUFX2_264 vdd gnd cpu_state[2] cpu_state[2_bF$buf0] BUFX2
XBUFX2_265 vdd gnd _1853_ _1853__bF$buf5 BUFX2
XBUFX2_266 vdd gnd _1853_ _1853__bF$buf4 BUFX2
XBUFX2_267 vdd gnd _1853_ _1853__bF$buf3 BUFX2
XBUFX2_268 vdd gnd _1853_ _1853__bF$buf2 BUFX2
XBUFX2_269 vdd gnd _1853_ _1853__bF$buf1 BUFX2
XBUFX2_270 vdd gnd _1853_ _1853__bF$buf0 BUFX2
XBUFX2_271 vdd gnd _5131_ _5131__bF$buf5 BUFX2
XBUFX2_272 vdd gnd _5131_ _5131__bF$buf4 BUFX2
XBUFX2_273 vdd gnd _5131_ _5131__bF$buf3 BUFX2
XBUFX2_274 vdd gnd _5131_ _5131__bF$buf2 BUFX2
XBUFX2_275 vdd gnd _5131_ _5131__bF$buf1 BUFX2
XBUFX2_276 vdd gnd _5131_ _5131__bF$buf0 BUFX2
XBUFX2_277 vdd gnd _5780_ _5780__bF$buf7 BUFX2
XBUFX2_278 vdd gnd _5780_ _5780__bF$buf6 BUFX2
XBUFX2_279 vdd gnd _5780_ _5780__bF$buf5 BUFX2
XBUFX2_280 vdd gnd _5780_ _5780__bF$buf4 BUFX2
XBUFX2_281 vdd gnd _5780_ _5780__bF$buf3 BUFX2
XBUFX2_282 vdd gnd _5780_ _5780__bF$buf2 BUFX2
XBUFX2_283 vdd gnd _5780_ _5780__bF$buf1 BUFX2
XBUFX2_284 vdd gnd _5780_ _5780__bF$buf0 BUFX2
XBUFX2_285 vdd gnd _10728_[0] _10728_[0_bF$buf7] BUFX2
XBUFX2_286 vdd gnd _10728_[0] _10728_[0_bF$buf6] BUFX2
XBUFX2_287 vdd gnd _10728_[0] _10728_[0_bF$buf5] BUFX2
XBUFX2_288 vdd gnd _10728_[0] _10728_[0_bF$buf4] BUFX2
XBUFX2_289 vdd gnd _10728_[0] _10728_[0_bF$buf3] BUFX2
XBUFX2_290 vdd gnd _10728_[0] _10728_[0_bF$buf2] BUFX2
XBUFX2_291 vdd gnd _10728_[0] _10728_[0_bF$buf1] BUFX2
XBUFX2_292 vdd gnd _10728_[0] _10728_[0_bF$buf0] BUFX2
XBUFX2_293 vdd gnd _3711_ _3711__bF$buf7 BUFX2
XBUFX2_294 vdd gnd _3711_ _3711__bF$buf6 BUFX2
XBUFX2_295 vdd gnd _3711_ _3711__bF$buf5 BUFX2
XBUFX2_296 vdd gnd _3711_ _3711__bF$buf4 BUFX2
XBUFX2_297 vdd gnd _3711_ _3711__bF$buf3 BUFX2
XBUFX2_298 vdd gnd _3711_ _3711__bF$buf2 BUFX2
XBUFX2_299 vdd gnd _3711_ _3711__bF$buf1 BUFX2
XBUFX2_300 vdd gnd _3711_ _3711__bF$buf0 BUFX2
XBUFX2_301 vdd gnd _4763_ _4763__bF$buf4 BUFX2
XBUFX2_302 vdd gnd _4763_ _4763__bF$buf3 BUFX2
XBUFX2_303 vdd gnd _4763_ _4763__bF$buf2 BUFX2
XBUFX2_304 vdd gnd _4763_ _4763__bF$buf1 BUFX2
XBUFX2_305 vdd gnd _4763_ _4763__bF$buf0 BUFX2
XBUFX2_306 vdd gnd decoder_trigger decoder_trigger_bF$buf3 BUFX2
XBUFX2_307 vdd gnd decoder_trigger decoder_trigger_bF$buf2 BUFX2
XBUFX2_308 vdd gnd decoder_trigger decoder_trigger_bF$buf1 BUFX2
XBUFX2_309 vdd gnd decoder_trigger decoder_trigger_bF$buf0 BUFX2
XBUFX2_310 vdd gnd instr_rdinstr instr_rdinstr_bF$buf4 BUFX2
XBUFX2_311 vdd gnd instr_rdinstr instr_rdinstr_bF$buf3 BUFX2
XBUFX2_312 vdd gnd instr_rdinstr instr_rdinstr_bF$buf2 BUFX2
XBUFX2_313 vdd gnd instr_rdinstr instr_rdinstr_bF$buf1 BUFX2
XBUFX2_314 vdd gnd instr_rdinstr instr_rdinstr_bF$buf0 BUFX2
XBUFX2_315 vdd gnd _3746_ _3746__bF$buf3 BUFX2
XBUFX2_316 vdd gnd _3746_ _3746__bF$buf2 BUFX2
XBUFX2_317 vdd gnd _3746_ _3746__bF$buf1 BUFX2
XBUFX2_318 vdd gnd _3746_ _3746__bF$buf0 BUFX2
XCLKBUF1_1 clk_hier0_bF$buf10 vdd gnd clk_bF$buf136 CLKBUF1
XCLKBUF1_2 clk_hier0_bF$buf9 vdd gnd clk_bF$buf135 CLKBUF1
XCLKBUF1_3 clk_hier0_bF$buf8 vdd gnd clk_bF$buf134 CLKBUF1
XCLKBUF1_4 clk_hier0_bF$buf7 vdd gnd clk_bF$buf133 CLKBUF1
XCLKBUF1_5 clk_hier0_bF$buf6 vdd gnd clk_bF$buf132 CLKBUF1
XCLKBUF1_6 clk_hier0_bF$buf5 vdd gnd clk_bF$buf131 CLKBUF1
XCLKBUF1_7 clk_hier0_bF$buf4 vdd gnd clk_bF$buf130 CLKBUF1
XCLKBUF1_8 clk_hier0_bF$buf3 vdd gnd clk_bF$buf129 CLKBUF1
XCLKBUF1_9 clk_hier0_bF$buf2 vdd gnd clk_bF$buf128 CLKBUF1
XCLKBUF1_10 clk_hier0_bF$buf1 vdd gnd clk_bF$buf127 CLKBUF1
XCLKBUF1_11 clk_hier0_bF$buf0 vdd gnd clk_bF$buf126 CLKBUF1
XCLKBUF1_12 clk_hier0_bF$buf10 vdd gnd clk_bF$buf125 CLKBUF1
XCLKBUF1_13 clk_hier0_bF$buf9 vdd gnd clk_bF$buf124 CLKBUF1
XCLKBUF1_14 clk_hier0_bF$buf8 vdd gnd clk_bF$buf123 CLKBUF1
XCLKBUF1_15 clk_hier0_bF$buf7 vdd gnd clk_bF$buf122 CLKBUF1
XCLKBUF1_16 clk_hier0_bF$buf6 vdd gnd clk_bF$buf121 CLKBUF1
XCLKBUF1_17 clk_hier0_bF$buf5 vdd gnd clk_bF$buf120 CLKBUF1
XCLKBUF1_18 clk_hier0_bF$buf4 vdd gnd clk_bF$buf119 CLKBUF1
XCLKBUF1_19 clk_hier0_bF$buf3 vdd gnd clk_bF$buf118 CLKBUF1
XCLKBUF1_20 clk_hier0_bF$buf2 vdd gnd clk_bF$buf117 CLKBUF1
XCLKBUF1_21 clk_hier0_bF$buf1 vdd gnd clk_bF$buf116 CLKBUF1
XCLKBUF1_22 clk_hier0_bF$buf0 vdd gnd clk_bF$buf115 CLKBUF1
XCLKBUF1_23 clk_hier0_bF$buf10 vdd gnd clk_bF$buf114 CLKBUF1
XCLKBUF1_24 clk_hier0_bF$buf9 vdd gnd clk_bF$buf113 CLKBUF1
XCLKBUF1_25 clk_hier0_bF$buf8 vdd gnd clk_bF$buf112 CLKBUF1
XCLKBUF1_26 clk_hier0_bF$buf7 vdd gnd clk_bF$buf111 CLKBUF1
XCLKBUF1_27 clk_hier0_bF$buf6 vdd gnd clk_bF$buf110 CLKBUF1
XCLKBUF1_28 clk_hier0_bF$buf5 vdd gnd clk_bF$buf109 CLKBUF1
XCLKBUF1_29 clk_hier0_bF$buf4 vdd gnd clk_bF$buf108 CLKBUF1
XCLKBUF1_30 clk_hier0_bF$buf3 vdd gnd clk_bF$buf107 CLKBUF1
XCLKBUF1_31 clk_hier0_bF$buf2 vdd gnd clk_bF$buf106 CLKBUF1
XCLKBUF1_32 clk_hier0_bF$buf1 vdd gnd clk_bF$buf105 CLKBUF1
XCLKBUF1_33 clk_hier0_bF$buf0 vdd gnd clk_bF$buf104 CLKBUF1
XCLKBUF1_34 clk_hier0_bF$buf10 vdd gnd clk_bF$buf103 CLKBUF1
XCLKBUF1_35 clk_hier0_bF$buf9 vdd gnd clk_bF$buf102 CLKBUF1
XCLKBUF1_36 clk_hier0_bF$buf8 vdd gnd clk_bF$buf101 CLKBUF1
XCLKBUF1_37 clk_hier0_bF$buf7 vdd gnd clk_bF$buf100 CLKBUF1
XCLKBUF1_38 clk_hier0_bF$buf6 vdd gnd clk_bF$buf99 CLKBUF1
XCLKBUF1_39 clk_hier0_bF$buf5 vdd gnd clk_bF$buf98 CLKBUF1
XCLKBUF1_40 clk_hier0_bF$buf4 vdd gnd clk_bF$buf97 CLKBUF1
XCLKBUF1_41 clk_hier0_bF$buf3 vdd gnd clk_bF$buf96 CLKBUF1
XCLKBUF1_42 clk_hier0_bF$buf2 vdd gnd clk_bF$buf95 CLKBUF1
XCLKBUF1_43 clk_hier0_bF$buf1 vdd gnd clk_bF$buf94 CLKBUF1
XCLKBUF1_44 clk_hier0_bF$buf0 vdd gnd clk_bF$buf93 CLKBUF1
XCLKBUF1_45 clk_hier0_bF$buf10 vdd gnd clk_bF$buf92 CLKBUF1
XCLKBUF1_46 clk_hier0_bF$buf9 vdd gnd clk_bF$buf91 CLKBUF1
XCLKBUF1_47 clk_hier0_bF$buf8 vdd gnd clk_bF$buf90 CLKBUF1
XCLKBUF1_48 clk_hier0_bF$buf7 vdd gnd clk_bF$buf89 CLKBUF1
XCLKBUF1_49 clk_hier0_bF$buf6 vdd gnd clk_bF$buf88 CLKBUF1
XCLKBUF1_50 clk_hier0_bF$buf5 vdd gnd clk_bF$buf87 CLKBUF1
XCLKBUF1_51 clk_hier0_bF$buf4 vdd gnd clk_bF$buf86 CLKBUF1
XCLKBUF1_52 clk_hier0_bF$buf3 vdd gnd clk_bF$buf85 CLKBUF1
XCLKBUF1_53 clk_hier0_bF$buf2 vdd gnd clk_bF$buf84 CLKBUF1
XCLKBUF1_54 clk_hier0_bF$buf1 vdd gnd clk_bF$buf83 CLKBUF1
XCLKBUF1_55 clk_hier0_bF$buf0 vdd gnd clk_bF$buf82 CLKBUF1
XCLKBUF1_56 clk_hier0_bF$buf10 vdd gnd clk_bF$buf81 CLKBUF1
XCLKBUF1_57 clk_hier0_bF$buf9 vdd gnd clk_bF$buf80 CLKBUF1
XCLKBUF1_58 clk_hier0_bF$buf8 vdd gnd clk_bF$buf79 CLKBUF1
XCLKBUF1_59 clk_hier0_bF$buf7 vdd gnd clk_bF$buf78 CLKBUF1
XCLKBUF1_60 clk_hier0_bF$buf6 vdd gnd clk_bF$buf77 CLKBUF1
XCLKBUF1_61 clk_hier0_bF$buf5 vdd gnd clk_bF$buf76 CLKBUF1
XCLKBUF1_62 clk_hier0_bF$buf4 vdd gnd clk_bF$buf75 CLKBUF1
XCLKBUF1_63 clk_hier0_bF$buf3 vdd gnd clk_bF$buf74 CLKBUF1
XCLKBUF1_64 clk_hier0_bF$buf2 vdd gnd clk_bF$buf73 CLKBUF1
XCLKBUF1_65 clk_hier0_bF$buf1 vdd gnd clk_bF$buf72 CLKBUF1
XCLKBUF1_66 clk_hier0_bF$buf0 vdd gnd clk_bF$buf71 CLKBUF1
XCLKBUF1_67 clk_hier0_bF$buf10 vdd gnd clk_bF$buf70 CLKBUF1
XCLKBUF1_68 clk_hier0_bF$buf9 vdd gnd clk_bF$buf69 CLKBUF1
XCLKBUF1_69 clk_hier0_bF$buf8 vdd gnd clk_bF$buf68 CLKBUF1
XCLKBUF1_70 clk_hier0_bF$buf7 vdd gnd clk_bF$buf67 CLKBUF1
XCLKBUF1_71 clk_hier0_bF$buf6 vdd gnd clk_bF$buf66 CLKBUF1
XCLKBUF1_72 clk_hier0_bF$buf5 vdd gnd clk_bF$buf65 CLKBUF1
XCLKBUF1_73 clk_hier0_bF$buf4 vdd gnd clk_bF$buf64 CLKBUF1
XCLKBUF1_74 clk_hier0_bF$buf3 vdd gnd clk_bF$buf63 CLKBUF1
XCLKBUF1_75 clk_hier0_bF$buf2 vdd gnd clk_bF$buf62 CLKBUF1
XCLKBUF1_76 clk_hier0_bF$buf1 vdd gnd clk_bF$buf61 CLKBUF1
XCLKBUF1_77 clk_hier0_bF$buf0 vdd gnd clk_bF$buf60 CLKBUF1
XCLKBUF1_78 clk_hier0_bF$buf10 vdd gnd clk_bF$buf59 CLKBUF1
XCLKBUF1_79 clk_hier0_bF$buf9 vdd gnd clk_bF$buf58 CLKBUF1
XCLKBUF1_80 clk_hier0_bF$buf8 vdd gnd clk_bF$buf57 CLKBUF1
XCLKBUF1_81 clk_hier0_bF$buf7 vdd gnd clk_bF$buf56 CLKBUF1
XCLKBUF1_82 clk_hier0_bF$buf6 vdd gnd clk_bF$buf55 CLKBUF1
XCLKBUF1_83 clk_hier0_bF$buf5 vdd gnd clk_bF$buf54 CLKBUF1
XCLKBUF1_84 clk_hier0_bF$buf4 vdd gnd clk_bF$buf53 CLKBUF1
XCLKBUF1_85 clk_hier0_bF$buf3 vdd gnd clk_bF$buf52 CLKBUF1
XCLKBUF1_86 clk_hier0_bF$buf2 vdd gnd clk_bF$buf51 CLKBUF1
XCLKBUF1_87 clk_hier0_bF$buf1 vdd gnd clk_bF$buf50 CLKBUF1
XCLKBUF1_88 clk_hier0_bF$buf0 vdd gnd clk_bF$buf49 CLKBUF1
XCLKBUF1_89 clk_hier0_bF$buf10 vdd gnd clk_bF$buf48 CLKBUF1
XCLKBUF1_90 clk_hier0_bF$buf9 vdd gnd clk_bF$buf47 CLKBUF1
XCLKBUF1_91 clk_hier0_bF$buf8 vdd gnd clk_bF$buf46 CLKBUF1
XCLKBUF1_92 clk_hier0_bF$buf7 vdd gnd clk_bF$buf45 CLKBUF1
XCLKBUF1_93 clk_hier0_bF$buf6 vdd gnd clk_bF$buf44 CLKBUF1
XCLKBUF1_94 clk_hier0_bF$buf5 vdd gnd clk_bF$buf43 CLKBUF1
XCLKBUF1_95 clk_hier0_bF$buf4 vdd gnd clk_bF$buf42 CLKBUF1
XCLKBUF1_96 clk_hier0_bF$buf3 vdd gnd clk_bF$buf41 CLKBUF1
XCLKBUF1_97 clk_hier0_bF$buf2 vdd gnd clk_bF$buf40 CLKBUF1
XCLKBUF1_98 clk_hier0_bF$buf1 vdd gnd clk_bF$buf39 CLKBUF1
XCLKBUF1_99 clk_hier0_bF$buf0 vdd gnd clk_bF$buf38 CLKBUF1
XCLKBUF1_100 clk_hier0_bF$buf10 vdd gnd clk_bF$buf37 CLKBUF1
XCLKBUF1_101 clk_hier0_bF$buf9 vdd gnd clk_bF$buf36 CLKBUF1
XCLKBUF1_102 clk_hier0_bF$buf8 vdd gnd clk_bF$buf35 CLKBUF1
XCLKBUF1_103 clk_hier0_bF$buf7 vdd gnd clk_bF$buf34 CLKBUF1
XCLKBUF1_104 clk_hier0_bF$buf6 vdd gnd clk_bF$buf33 CLKBUF1
XCLKBUF1_105 clk_hier0_bF$buf5 vdd gnd clk_bF$buf32 CLKBUF1
XCLKBUF1_106 clk_hier0_bF$buf4 vdd gnd clk_bF$buf31 CLKBUF1
XCLKBUF1_107 clk_hier0_bF$buf3 vdd gnd clk_bF$buf30 CLKBUF1
XCLKBUF1_108 clk_hier0_bF$buf2 vdd gnd clk_bF$buf29 CLKBUF1
XCLKBUF1_109 clk_hier0_bF$buf1 vdd gnd clk_bF$buf28 CLKBUF1
XCLKBUF1_110 clk_hier0_bF$buf0 vdd gnd clk_bF$buf27 CLKBUF1
XCLKBUF1_111 clk_hier0_bF$buf10 vdd gnd clk_bF$buf26 CLKBUF1
XCLKBUF1_112 clk_hier0_bF$buf9 vdd gnd clk_bF$buf25 CLKBUF1
XCLKBUF1_113 clk_hier0_bF$buf8 vdd gnd clk_bF$buf24 CLKBUF1
XCLKBUF1_114 clk_hier0_bF$buf7 vdd gnd clk_bF$buf23 CLKBUF1
XCLKBUF1_115 clk_hier0_bF$buf6 vdd gnd clk_bF$buf22 CLKBUF1
XCLKBUF1_116 clk_hier0_bF$buf5 vdd gnd clk_bF$buf21 CLKBUF1
XCLKBUF1_117 clk_hier0_bF$buf4 vdd gnd clk_bF$buf20 CLKBUF1
XCLKBUF1_118 clk_hier0_bF$buf3 vdd gnd clk_bF$buf19 CLKBUF1
XCLKBUF1_119 clk_hier0_bF$buf2 vdd gnd clk_bF$buf18 CLKBUF1
XCLKBUF1_120 clk_hier0_bF$buf1 vdd gnd clk_bF$buf17 CLKBUF1
XCLKBUF1_121 clk_hier0_bF$buf0 vdd gnd clk_bF$buf16 CLKBUF1
XCLKBUF1_122 clk_hier0_bF$buf10 vdd gnd clk_bF$buf15 CLKBUF1
XCLKBUF1_123 clk_hier0_bF$buf9 vdd gnd clk_bF$buf14 CLKBUF1
XCLKBUF1_124 clk_hier0_bF$buf8 vdd gnd clk_bF$buf13 CLKBUF1